<?xml version='1.0' encoding='utf-8'?>
<routes xmlns:xsi="http://www.w3.org/2001/XMLSchema-instance" xsi:noNamespaceSchemaLocation="http://sumo.dlr.de/xsd/routes_file.xsd"><trip id="0" depart="0.00" from="E53L" to="E50XXL" via="503491597#1" />
    <trip id="1" depart="15.00" from="E39M" to="E46XL" via="107221158#6" />
    <trip id="2" depart="30.00" from="E6S" to="E47XL" via="-36777680#9" />
    <trip id="3" depart="45.00" from="E36M" to="E50XXL" via="-36777680#9" />
    <trip id="4" depart="60.00" from="E24M" to="E57L" via="-36777680#9" />
    <trip id="5" depart="75.00" from="E18S" to="E46XL" via="503491597#1" />
    <trip id="6" depart="90.00" from="E35M" to="E46XL" via="107221158#6" />
    <trip id="7" depart="105.00" from="E21M" to="E47XL" via="1084220439#0" />
    <trip id="8" depart="120.00" from="E38M" to="E47XL" via="503491597#1" />
    <trip id="9" depart="135.00" from="E32L" to="E47XL" via="503491597#1" />
    <trip id="10" depart="150.00" from="E29M" to="E47XL" via="-36777680#9" />
    <trip id="11" depart="165.00" from="E27M" to="E46XL" via="107221158#6" />
    <trip id="12" depart="180.00" from="E16M" to="E47XL" via="1084220439#0" />
    <trip id="13" depart="195.00" from="E3S" to="E47XL" via="107221158#6" />
    <trip id="14" depart="210.00" from="E39M" to="E57L" via="107221158#6" />
    <trip id="15" depart="225.00" from="E21M" to="E50XXL" via="-36777680#9" />
    <trip id="16" depart="240.00" from="E40S" to="E57L" via="-36777680#9" />
    <trip id="17" depart="255.00" from="E9S" to="E47XL" via="503491597#1" />
    <trip id="18" depart="270.00" from="E55L" to="E46XL" via="503491597#1" />
    <trip id="19" depart="285.00" from="E21M" to="E57L" via="-36777680#9" />
    <trip id="20" depart="300.00" from="E17M" to="E47XL" via="503491597#1" />
    <trip id="21" depart="315.00" from="E44SS" to="E57L" via="107221158#6" />
    <trip id="22" depart="330.00" from="E55L" to="E46XL" via="1084220439#0" />
    <trip id="23" depart="345.00" from="E42SS" to="E46XL" via="503491597#1" />
    <trip id="24" depart="360.00" from="E26XL" to="E47XL" via="-36777680#9" />
    <trip id="25" depart="375.00" from="E15L" to="E47XL" via="107221158#6" />
    <trip id="26" depart="390.00" from="E44SS" to="E46XL" via="-36777680#9" />
    <trip id="27" depart="405.00" from="E17M" to="E57L" via="503491597#1" />
    <trip id="28" depart="420.00" from="E17M" to="E46XL" via="503491597#1" />
    <trip id="29" depart="435.00" from="E17M" to="E50XXL" via="-36777680#9" />
    <trip id="30" depart="450.00" from="E32L" to="E57L" via="503491597#1" />
    <trip id="31" depart="465.00" from="E53L" to="E57L" via="-36777680#9" />
    <trip id="32" depart="480.00" from="E15L" to="E57L" via="1084220439#0" />
    <trip id="33" depart="495.00" from="E15L" to="E57L" via="503491597#1" />
    <trip id="34" depart="510.00" from="E4S" to="E47XL" via="-36777680#9" />
    <trip id="35" depart="525.00" from="E35M" to="E47XL" via="-36777680#9" />
    <trip id="36" depart="540.00" from="E27M" to="E47XL" via="-36777680#9" />
    <trip id="37" depart="555.00" from="E55L" to="E46XL" via="503491597#1" />
    <trip id="38" depart="570.00" from="E12SS" to="E57L" via="1084220439#0" />
    <trip id="39" depart="585.00" from="E26XL" to="E47XL" via="1084220439#0" />
    <trip id="40" depart="600.00" from="E27M" to="E50XXL" via="107221158#6" />
    <trip id="41" depart="615.00" from="E13XL" to="E47XL" via="503491597#1" />
    <trip id="42" depart="630.00" from="E19S" to="E47XL" via="107221158#6" />
    <trip id="43" depart="645.00" from="E54L" to="E46XL" via="-36777680#9" />
    <trip id="44" depart="660.00" from="E2S" to="E50XXL" via="1084220439#0" />
    <trip id="45" depart="675.00" from="E54L" to="E47XL" via="503491597#1" />
    <trip id="46" depart="690.00" from="E6S" to="E46XL" via="-36777680#9" />
    <trip id="47" depart="705.00" from="-E49M" to="E47XL" via="1084220439#0" />
    <trip id="48" depart="720.00" from="E21M" to="E50XXL" via="1084220439#0" />
    <trip id="49" depart="735.00" from="E56L" to="E47XL" via="1084220439#0" />
    <trip id="50" depart="750.00" from="E9S" to="E46XL" via="107221158#6" />
    <trip id="51" depart="765.00" from="E26XL" to="E46XL" via="1084220439#0" />
    <trip id="52" depart="780.00" from="E15L" to="E57L" via="503491597#1" />
    <trip id="53" depart="795.00" from="E30S" to="E47XL" via="107221158#6" />
    <trip id="54" depart="810.00" from="E16M" to="E46XL" via="503491597#1" />
    <trip id="55" depart="825.00" from="E35M" to="E57L" via="1084220439#0" />
    <trip id="56" depart="840.00" from="E13XL" to="E46XL" via="1084220439#0" />
    <trip id="57" depart="855.00" from="E26XL" to="E57L" via="-36777680#9" />
    <trip id="58" depart="870.00" from="E15L" to="E57L" via="1084220439#0" />
    <trip id="59" depart="885.00" from="E15L" to="E57L" via="1084220439#0" />
    <trip id="60" depart="900.00" from="E38M" to="E46XL" via="1084220439#0" />
    <trip id="61" depart="915.00" from="E5M" to="E46XL" via="503491597#1" />
    <trip id="62" depart="930.00" from="E29M" to="E46XL" via="-36777680#9" />
    <trip id="63" depart="945.00" from="E36M" to="E50XXL" via="107221158#6" />
    <trip id="64" depart="960.00" from="E22M" to="E46XL" via="107221158#6" />
    <trip id="65" depart="975.00" from="E45S" to="E46XL" via="107221158#6" />
    <trip id="66" depart="990.00" from="E54L" to="E47XL" via="107221158#6" />
    <trip id="67" depart="1005.00" from="E18S" to="E46XL" via="107221158#6" />
    <trip id="68" depart="1020.00" from="E36M" to="E50XXL" via="-36777680#9" />
    <trip id="69" depart="1035.00" from="E55L" to="E47XL" via="-36777680#9" />
    <trip id="70" depart="1050.00" from="E53L" to="E46XL" via="1084220439#0" />
    <trip id="71" depart="1065.00" from="E37M" to="E46XL" via="107221158#6" />
    <trip id="72" depart="1080.00" from="E45S" to="E57L" via="-36777680#9" />
    <trip id="73" depart="1095.00" from="E31M" to="E57L" via="-36777680#9" />
    <trip id="74" depart="1110.00" from="E36M" to="E57L" via="107221158#6" />
    <trip id="75" depart="1125.00" from="E27M" to="E57L" via="-36777680#9" />
    <trip id="76" depart="1140.00" from="E55L" to="E47XL" via="1084220439#0" />
    <trip id="77" depart="1155.00" from="E7S" to="E46XL" via="503491597#1" />
    <trip id="78" depart="1170.00" from="E39M" to="E57L" via="107221158#6" />
    <trip id="79" depart="1185.00" from="E4S" to="E57L" via="-36777680#9" />
    <trip id="80" depart="1200.00" from="E24M" to="E50XXL" via="503491597#1" />
    <trip id="81" depart="1215.00" from="E32L" to="E46XL" via="1084220439#0" />
    <trip id="82" depart="1230.00" from="E38M" to="E46XL" via="503491597#1" />
    <trip id="83" depart="1245.00" from="E37M" to="E50XXL" via="1084220439#0" />
    <trip id="84" depart="1260.00" from="E35M" to="E57L" via="-36777680#9" />
    <trip id="85" depart="1275.00" from="E35M" to="E46XL" via="503491597#1" />
    <trip id="86" depart="1290.00" from="E55L" to="E47XL" via="1084220439#0" />
    <trip id="87" depart="1305.00" from="E13XL" to="E57L" via="1084220439#0" />
    <trip id="88" depart="1320.00" from="E17M" to="E47XL" via="1084220439#0" />
    <trip id="89" depart="1335.00" from="E15L" to="E47XL" via="503491597#1" />
    <trip id="90" depart="1350.00" from="E44SS" to="E46XL" via="107221158#6" />
    <trip id="91" depart="1365.00" from="E30S" to="E57L" via="-36777680#9" />
    <trip id="92" depart="1380.00" from="E38M" to="E46XL" via="-36777680#9" />
    <trip id="93" depart="1395.00" from="E39M" to="E57L" via="503491597#1" />
    <trip id="94" depart="1410.00" from="E54L" to="E50XXL" via="-36777680#9" />
    <trip id="95" depart="1425.00" from="E35M" to="E50XXL" via="-36777680#9" />
    <trip id="96" depart="1440.00" from="E24M" to="E47XL" via="503491597#1" />
    <trip id="97" depart="1455.00" from="E32L" to="E50XXL" via="1084220439#0" />
    <trip id="98" depart="1470.00" from="E38M" to="E50XXL" via="1084220439#0" />
    <trip id="99" depart="1485.00" from="E42SS" to="E46XL" via="107221158#6" />
    <trip id="100" depart="1500.00" from="E17M" to="E57L" via="503491597#1" />
    <trip id="101" depart="1515.00" from="E54L" to="E57L" via="107221158#6" />
    <trip id="102" depart="1530.00" from="E15L" to="E46XL" via="503491597#1" />
    <trip id="103" depart="1545.00" from="E32L" to="E46XL" via="-36777680#9" />
    <trip id="104" depart="1560.00" from="E37M" to="E57L" via="1084220439#0" />
    <trip id="105" depart="1575.00" from="E17M" to="E50XXL" via="1084220439#0" />
    <trip id="106" depart="1590.00" from="E53L" to="E46XL" via="107221158#6" />
    <trip id="107" depart="1605.00" from="E35M" to="E47XL" via="503491597#1" />
    <trip id="108" depart="1620.00" from="E26XL" to="E46XL" via="1084220439#0" />
    <trip id="109" depart="1635.00" from="E5M" to="E47XL" via="107221158#6" />
    <trip id="110" depart="1650.00" from="E5M" to="E47XL" via="107221158#6" />
    <trip id="111" depart="1665.00" from="E53L" to="E57L" via="-36777680#9" />
    <trip id="112" depart="1680.00" from="E53L" to="E50XXL" via="-36777680#9" />
    <trip id="113" depart="1695.00" from="E54L" to="E50XXL" via="503491597#1" />
    <trip id="114" depart="1710.00" from="E21M" to="E50XXL" via="503491597#1" />
    <trip id="115" depart="1725.00" from="E21M" to="E47XL" via="1084220439#0" />
    <trip id="116" depart="1740.00" from="E3S" to="E46XL" via="503491597#1" />
    <trip id="117" depart="1755.00" from="E22M" to="E50XXL" via="-36777680#9" />
    <trip id="118" depart="1770.00" from="E36M" to="E46XL" via="1084220439#0" />
    <trip id="119" depart="1785.00" from="E52S" to="E57L" via="107221158#6" />
    <trip id="120" depart="1800.00" from="E37M" to="E46XL" via="-36777680#9" />
    <trip id="121" depart="1815.00" from="-E49M" to="E57L" via="1084220439#0" />
    <trip id="122" depart="1830.00" from="E35M" to="E57L" via="-36777680#9" />
    <trip id="123" depart="1845.00" from="E53L" to="E47XL" via="107221158#6" />
    <trip id="124" depart="1860.00" from="E43SS" to="E46XL" via="1084220439#0" />
    <trip id="125" depart="1875.00" from="E21M" to="E50XXL" via="1084220439#0" />
    <trip id="126" depart="1890.00" from="E8S" to="E57L" via="1084220439#0" />
    <trip id="127" depart="1905.00" from="E24M" to="E57L" via="1084220439#0" />
    <trip id="128" depart="1920.00" from="E15L" to="E47XL" via="503491597#1" />
    <trip id="129" depart="1935.00" from="E16M" to="E47XL" via="107221158#6" />
    <trip id="130" depart="1950.00" from="E29M" to="E46XL" via="503491597#1" />
    <trip id="131" depart="1965.00" from="E32L" to="E50XXL" via="-36777680#9" />
    <trip id="132" depart="1980.00" from="E38M" to="E47XL" via="1084220439#0" />
    <trip id="133" depart="1995.00" from="E20S" to="E47XL" via="503491597#1" />
    <trip id="134" depart="2010.00" from="E4S" to="E46XL" via="-36777680#9" />
    <trip id="135" depart="2025.00" from="E19S" to="E57L" via="107221158#6" />
    <trip id="136" depart="2040.00" from="E35M" to="E57L" via="503491597#1" />
    <trip id="137" depart="2055.00" from="E27M" to="E47XL" via="503491597#1" />
    <trip id="138" depart="2070.00" from="E54L" to="E47XL" via="107221158#6" />
    <trip id="139" depart="2085.00" from="E54L" to="E50XXL" via="107221158#6" />
    <trip id="140" depart="2100.00" from="E5M" to="E46XL" via="-36777680#9" />
    <trip id="141" depart="2115.00" from="E9S" to="E57L" via="107221158#6" />
    <trip id="142" depart="2130.00" from="E15L" to="E50XXL" via="-36777680#9" />
    <trip id="143" depart="2145.00" from="E22M" to="E46XL" via="1084220439#0" />
    <trip id="144" depart="2160.00" from="E56L" to="E47XL" via="503491597#1" />
    <trip id="145" depart="2175.00" from="E13XL" to="E50XXL" via="107221158#6" />
    <trip id="146" depart="2190.00" from="E37M" to="E50XXL" via="-36777680#9" />
    <trip id="147" depart="2205.00" from="E16M" to="E57L" via="107221158#6" />
    <trip id="148" depart="2220.00" from="E55L" to="E47XL" via="107221158#6" />
    <trip id="149" depart="2235.00" from="E27M" to="E46XL" via="-36777680#9" />
    <trip id="150" depart="2250.00" from="E48S" to="E47XL" via="107221158#6" />
    <trip id="151" depart="2265.00" from="-E49M" to="E47XL" via="-36777680#9" />
    <trip id="152" depart="2280.00" from="-E49M" to="E46XL" via="-36777680#9" />
    <trip id="153" depart="2295.00" from="E3S" to="E46XL" via="1084220439#0" />
    <trip id="154" depart="2310.00" from="E44SS" to="E46XL" via="107221158#6" />
    <trip id="155" depart="2325.00" from="E20S" to="E57L" via="503491597#1" />
    <trip id="156" depart="2340.00" from="E38M" to="E50XXL" via="-36777680#9" />
    <trip id="157" depart="2355.00" from="E13XL" to="E57L" via="-36777680#9" />
    <trip id="158" depart="2370.00" from="E32L" to="E50XXL" via="503491597#1" />
    <trip id="159" depart="2385.00" from="E12SS" to="E57L" via="107221158#6" />
    <trip id="160" depart="2400.00" from="E11SS" to="E46XL" via="503491597#1" />
    <trip id="161" depart="2415.00" from="E22M" to="E46XL" via="503491597#1" />
    <trip id="162" depart="2430.00" from="E54L" to="E57L" via="-36777680#9" />
    <trip id="163" depart="2445.00" from="E5M" to="E47XL" via="503491597#1" />
    <trip id="164" depart="2460.00" from="E38M" to="E50XXL" via="107221158#6" />
    <trip id="165" depart="2475.00" from="E56L" to="E57L" via="107221158#6" />
    <trip id="166" depart="2490.00" from="E29M" to="E57L" via="107221158#6" />
    <trip id="167" depart="2505.00" from="E52S" to="E47XL" via="107221158#6" />
    <trip id="168" depart="2520.00" from="E6S" to="E46XL" via="-36777680#9" />
    <trip id="169" depart="2535.00" from="E36M" to="E57L" via="107221158#6" />
    <trip id="170" depart="2550.00" from="E20S" to="E47XL" via="107221158#6" />
    <trip id="171" depart="2565.00" from="E35M" to="E47XL" via="503491597#1" />
    <trip id="172" depart="2580.00" from="E6S" to="E47XL" via="-36777680#9" />
    <trip id="173" depart="2595.00" from="E4S" to="E47XL" via="-36777680#9" />
    <trip id="174" depart="2610.00" from="E3S" to="E47XL" via="-36777680#9" />
    <trip id="175" depart="2625.00" from="E54L" to="E46XL" via="503491597#1" />
    <trip id="176" depart="2640.00" from="E22M" to="E57L" via="503491597#1" />
    <trip id="177" depart="2655.00" from="E6S" to="E47XL" via="1084220439#0" />
    <trip id="178" depart="2670.00" from="E4S" to="E47XL" via="107221158#6" />
    <trip id="179" depart="2685.00" from="E43SS" to="E46XL" via="107221158#6" />
    <trip id="180" depart="2700.00" from="E21M" to="E57L" via="1084220439#0" />
    <trip id="181" depart="2715.00" from="E32L" to="E50XXL" via="503491597#1" />
    <trip id="182" depart="2730.00" from="E13XL" to="E57L" via="503491597#1" />
    <trip id="183" depart="2745.00" from="E5M" to="E57L" via="107221158#6" />
    <trip id="184" depart="2760.00" from="E13XL" to="E50XXL" via="503491597#1" />
    <trip id="185" depart="2775.00" from="E2S" to="E47XL" via="503491597#1" />
    <trip id="186" depart="2790.00" from="E29M" to="E46XL" via="-36777680#9" />
    <trip id="187" depart="2805.00" from="E8S" to="E57L" via="503491597#1" />
    <trip id="188" depart="2820.00" from="E5M" to="E46XL" via="1084220439#0" />
    <trip id="189" depart="2835.00" from="E26XL" to="E47XL" via="107221158#6" />
    <trip id="190" depart="2850.00" from="E9S" to="E46XL" via="-36777680#9" />
    <trip id="191" depart="2865.00" from="E37M" to="E47XL" via="1084220439#0" />
    <trip id="192" depart="2880.00" from="E16M" to="E47XL" via="-36777680#9" />
    <trip id="193" depart="2895.00" from="E9S" to="E46XL" via="503491597#1" />
    <trip id="194" depart="2910.00" from="E32L" to="E46XL" via="107221158#6" />
    <trip id="195" depart="2925.00" from="E21M" to="E50XXL" via="-36777680#9" />
    <trip id="196" depart="2940.00" from="E29M" to="E57L" via="1084220439#0" />
    <trip id="197" depart="2955.00" from="-E49M" to="E47XL" via="1084220439#0" />
    <trip id="198" depart="2970.00" from="E52S" to="E46XL" via="1084220439#0" />
    <trip id="199" depart="2985.00" from="E40S" to="E47XL" via="-36777680#9" />
    <trip id="200" depart="3000.00" from="E32L" to="E57L" via="107221158#6" />
    <trip id="201" depart="3015.00" from="E20S" to="E47XL" via="107221158#6" />
    <trip id="202" depart="3030.00" from="E26XL" to="E50XXL" via="107221158#6" />
    <trip id="203" depart="3045.00" from="E30S" to="E47XL" via="503491597#1" />
    <trip id="204" depart="3060.00" from="E24M" to="E57L" via="107221158#6" />
    <trip id="205" depart="3075.00" from="E16M" to="E46XL" via="1084220439#0" />
    <trip id="206" depart="3090.00" from="E40S" to="E47XL" via="1084220439#0" />
    <trip id="207" depart="3105.00" from="E26XL" to="E57L" via="1084220439#0" />
    <trip id="208" depart="3120.00" from="E19S" to="E50XXL" via="503491597#1" />
    <trip id="209" depart="3135.00" from="E2S" to="E46XL" via="107221158#6" />
    <trip id="210" depart="3150.00" from="E38M" to="E57L" via="107221158#6" />
    <trip id="211" depart="3165.00" from="E42SS" to="E46XL" via="503491597#1" />
    <trip id="212" depart="3180.00" from="E16M" to="E57L" via="1084220439#0" />
    <trip id="213" depart="3195.00" from="E38M" to="E50XXL" via="503491597#1" />
    <trip id="214" depart="3210.00" from="E54L" to="E47XL" via="1084220439#0" />
    <trip id="215" depart="3225.00" from="E4S" to="E46XL" via="503491597#1" />
    <trip id="216" depart="3240.00" from="E38M" to="E47XL" via="-36777680#9" />
    <trip id="217" depart="3255.00" from="E16M" to="E50XXL" via="-36777680#9" />
    <trip id="218" depart="3270.00" from="E53L" to="E50XXL" via="-36777680#9" />
    <trip id="219" depart="3285.00" from="E45S" to="E47XL" via="503491597#1" />
    <trip id="220" depart="3300.00" from="E22M" to="E46XL" via="-36777680#9" />
    <trip id="221" depart="3315.00" from="E56L" to="E47XL" via="107221158#6" />
    <trip id="222" depart="3330.00" from="E17M" to="E50XXL" via="1084220439#0" />
    <trip id="223" depart="3345.00" from="E9S" to="E46XL" via="503491597#1" />
    <trip id="224" depart="3360.00" from="E35M" to="E50XXL" via="-36777680#9" />
    <trip id="225" depart="3375.00" from="E26XL" to="E57L" via="503491597#1" />
    <trip id="226" depart="3390.00" from="E35M" to="E57L" via="1084220439#0" />
    <trip id="227" depart="3405.00" from="E24M" to="E50XXL" via="503491597#1" />
    <trip id="228" depart="3420.00" from="E53L" to="E57L" via="107221158#6" />
    <trip id="229" depart="3435.00" from="E32L" to="E47XL" via="503491597#1" />
    <trip id="230" depart="3450.00" from="E12SS" to="E57L" via="107221158#6" />
    <trip id="231" depart="3465.00" from="E20S" to="E46XL" via="107221158#6" />
    <trip id="232" depart="3480.00" from="E11SS" to="E57L" via="1084220439#0" />
    <trip id="233" depart="3495.00" from="E13XL" to="E50XXL" via="-36777680#9" />
    <trip id="234" depart="3510.00" from="E26XL" to="E57L" via="503491597#1" />
    <trip id="235" depart="3525.00" from="E33SS" to="E46XL" via="1084220439#0" />
    <trip id="236" depart="3540.00" from="E56L" to="E47XL" via="-36777680#9" />
    <trip id="237" depart="3555.00" from="E55L" to="E47XL" via="-36777680#9" />
    <trip id="238" depart="3570.00" from="E32L" to="E50XXL" via="107221158#6" />
    <trip id="239" depart="3585.00" from="E16M" to="E47XL" via="503491597#1" />
<trip id="240" depart="3600.00" from="E8S" to="E46XL" via="1084220439#0" />
    <trip id="241" depart="3615.00" from="E55L" to="E46XL" via="1084220439#0" />
    <trip id="242" depart="3630.00" from="E31M" to="E47XL" via="1084220439#0" />
    <trip id="243" depart="3645.00" from="E17M" to="E46XL" via="503491597#1" />
    <trip id="244" depart="3660.00" from="E55L" to="E57L" via="503491597#1" />
    <trip id="245" depart="3675.00" from="E21M" to="E50XXL" via="503491597#1" />
    <trip id="246" depart="3690.00" from="E37M" to="E46XL" via="107221158#6" />
    <trip id="247" depart="3705.00" from="E24M" to="E50XXL" via="107221158#6" />
    <trip id="248" depart="3720.00" from="E7S" to="E47XL" via="-36777680#9" />
    <trip id="249" depart="3735.00" from="E18S" to="E57L" via="1084220439#0" />
    <trip id="250" depart="3750.00" from="E3S" to="E46XL" via="107221158#6" />
    <trip id="251" depart="3765.00" from="E20S" to="E46XL" via="-36777680#9" />
    <trip id="252" depart="3780.00" from="E11SS" to="E47XL" via="-36777680#9" />
    <trip id="253" depart="3795.00" from="E21M" to="E47XL" via="107221158#6" />
    <trip id="254" depart="3810.00" from="E24M" to="E46XL" via="1084220439#0" />
    <trip id="255" depart="3825.00" from="E28S" to="E47XL" via="-36777680#9" />
    <trip id="256" depart="3840.00" from="E17M" to="E47XL" via="1084220439#0" />
    <trip id="257" depart="3855.00" from="E16M" to="E46XL" via="1084220439#0" />
    <trip id="258" depart="3870.00" from="E22M" to="E46XL" via="1084220439#0" />
    <trip id="259" depart="3885.00" from="E6S" to="E46XL" via="503491597#1" />
    <trip id="260" depart="3900.00" from="E41SS" to="E47XL" via="-36777680#9" />
    <trip id="261" depart="3915.00" from="E31M" to="E50XXL" via="107221158#6" />
    <trip id="262" depart="3930.00" from="E54L" to="E47XL" via="107221158#6" />
    <trip id="263" depart="3945.00" from="E42SS" to="E57L" via="1084220439#0" />
    <trip id="264" depart="3960.00" from="E29M" to="E57L" via="107221158#6" />
    <trip id="265" depart="3975.00" from="E15L" to="E50XXL" via="-36777680#9" />
    <trip id="266" depart="3990.00" from="E48S" to="E46XL" via="503491597#1" />
    <trip id="267" depart="4005.00" from="E5M" to="E47XL" via="503491597#1" />
    <trip id="268" depart="4020.00" from="E11SS" to="E57L" via="107221158#6" />
    <trip id="269" depart="4035.00" from="E26XL" to="E46XL" via="503491597#1" />
    <trip id="270" depart="4050.00" from="E18S" to="E50XXL" via="107221158#6" />
    <trip id="271" depart="4065.00" from="E48S" to="E46XL" via="-36777680#9" />
    <trip id="272" depart="4080.00" from="E24M" to="E50XXL" via="-36777680#9" />
    <trip id="273" depart="4095.00" from="E39M" to="E47XL" via="-36777680#9" />
    <trip id="274" depart="4110.00" from="E56L" to="E46XL" via="107221158#6" />
    <trip id="275" depart="4125.00" from="E38M" to="E46XL" via="503491597#1" />
    <trip id="276" depart="4140.00" from="E28S" to="E47XL" via="1084220439#0" />
    <trip id="277" depart="4155.00" from="E26XL" to="E57L" via="1084220439#0" />
    <trip id="278" depart="4170.00" from="E34SS" to="E46XL" via="-36777680#9" />
    <trip id="279" depart="4185.00" from="E17M" to="E50XXL" via="1084220439#0" />
    <trip id="280" depart="4200.00" from="E27M" to="E46XL" via="107221158#6" />
    <trip id="281" depart="4215.00" from="E28S" to="E46XL" via="-36777680#9" />
    <trip id="282" depart="4230.00" from="E36M" to="E50XXL" via="107221158#6" />
    <trip id="283" depart="4245.00" from="E26XL" to="E50XXL" via="107221158#6" />
    <trip id="284" depart="4260.00" from="E22M" to="E46XL" via="-36777680#9" />
    <trip id="285" depart="4275.00" from="E27M" to="E46XL" via="1084220439#0" />
    <trip id="286" depart="4290.00" from="E16M" to="E50XXL" via="1084220439#0" />
    <trip id="287" depart="4305.00" from="E24M" to="E46XL" via="-36777680#9" />
    <trip id="288" depart="4320.00" from="E21M" to="E50XXL" via="1084220439#0" />
    <trip id="289" depart="4335.00" from="E39M" to="E50XXL" via="503491597#1" />
    <trip id="290" depart="4350.00" from="E54L" to="E46XL" via="1084220439#0" />
    <trip id="291" depart="4365.00" from="E26XL" to="E50XXL" via="-36777680#9" />
    <trip id="292" depart="4380.00" from="E15L" to="E47XL" via="107221158#6" />
    <trip id="293" depart="4395.00" from="E9S" to="E47XL" via="503491597#1" />
    <trip id="294" depart="4410.00" from="E20S" to="E47XL" via="503491597#1" />
    <trip id="295" depart="4425.00" from="E5M" to="E57L" via="107221158#6" />
    <trip id="296" depart="4440.00" from="E53L" to="E47XL" via="107221158#6" />
    <trip id="297" depart="4455.00" from="E24M" to="E46XL" via="107221158#6" />
    <trip id="298" depart="4470.00" from="E19S" to="E46XL" via="-36777680#9" />
    <trip id="299" depart="4485.00" from="E2S" to="E50XXL" via="1084220439#0" />
    <trip id="300" depart="4500.00" from="E17M" to="E46XL" via="107221158#6" />
    <trip id="301" depart="4515.00" from="E27M" to="E47XL" via="-36777680#9" />
    <trip id="302" depart="4530.00" from="E36M" to="E46XL" via="1084220439#0" />
    <trip id="303" depart="4545.00" from="E53L" to="E47XL" via="107221158#6" />
    <trip id="304" depart="4560.00" from="E13XL" to="E47XL" via="-36777680#9" />
    <trip id="305" depart="4575.00" from="E16M" to="E46XL" via="1084220439#0" />
    <trip id="306" depart="4590.00" from="E41SS" to="E47XL" via="-36777680#9" />
    <trip id="307" depart="4605.00" from="E14SS" to="E57L" via="-36777680#9" />
    <trip id="308" depart="4620.00" from="E41SS" to="E47XL" via="-36777680#9" />
    <trip id="309" depart="4635.00" from="E8S" to="E47XL" via="-36777680#9" />
    <trip id="310" depart="4650.00" from="-E49M" to="E57L" via="1084220439#0" />
    <trip id="311" depart="4665.00" from="E52S" to="E57L" via="1084220439#0" />
    <trip id="312" depart="4680.00" from="E53L" to="E57L" via="1084220439#0" />
    <trip id="313" depart="4695.00" from="E13XL" to="E46XL" via="503491597#1" />
    <trip id="314" depart="4710.00" from="E14SS" to="E57L" via="-36777680#9" />
    <trip id="315" depart="4725.00" from="E31M" to="E47XL" via="503491597#1" />
    <trip id="316" depart="4740.00" from="E22M" to="E57L" via="107221158#6" />
    <trip id="317" depart="4755.00" from="E13XL" to="E57L" via="-36777680#9" />
    <trip id="318" depart="4770.00" from="E5M" to="E46XL" via="-36777680#9" />
    <trip id="319" depart="4785.00" from="E29M" to="E47XL" via="503491597#1" />
    <trip id="320" depart="4800.00" from="E31M" to="E47XL" via="-36777680#9" />
    <trip id="321" depart="4815.00" from="E54L" to="E47XL" via="503491597#1" />
    <trip id="322" depart="4830.00" from="E17M" to="E50XXL" via="503491597#1" />
    <trip id="323" depart="4845.00" from="E28S" to="E47XL" via="503491597#1" />
    <trip id="324" depart="4860.00" from="E32L" to="E50XXL" via="-36777680#9" />
    <trip id="325" depart="4875.00" from="E56L" to="E47XL" via="-36777680#9" />
    <trip id="326" depart="4890.00" from="E28S" to="E57L" via="-36777680#9" />
    <trip id="327" depart="4905.00" from="E39M" to="E46XL" via="-36777680#9" />
    <trip id="328" depart="4920.00" from="E32L" to="E57L" via="1084220439#0" />
    <trip id="329" depart="4935.00" from="E26XL" to="E50XXL" via="107221158#6" />
    <trip id="330" depart="4950.00" from="E21M" to="E47XL" via="503491597#1" />
    <trip id="331" depart="4965.00" from="E20S" to="E46XL" via="1084220439#0" />
    <trip id="332" depart="4980.00" from="E24M" to="E46XL" via="503491597#1" />
    <trip id="333" depart="4995.00" from="E54L" to="E46XL" via="-36777680#9" />
    <trip id="334" depart="5010.00" from="E9S" to="E46XL" via="-36777680#9" />
    <trip id="335" depart="5025.00" from="E30S" to="E57L" via="-36777680#9" />
    <trip id="336" depart="5040.00" from="E38M" to="E47XL" via="503491597#1" />
    <trip id="337" depart="5055.00" from="E3S" to="E47XL" via="-36777680#9" />
    <trip id="338" depart="5070.00" from="E12SS" to="E46XL" via="107221158#6" />
    <trip id="339" depart="5085.00" from="E32L" to="E50XXL" via="107221158#6" />
    <trip id="340" depart="5100.00" from="E29M" to="E46XL" via="-36777680#9" />
    <trip id="341" depart="5115.00" from="E13XL" to="E47XL" via="-36777680#9" />
    <trip id="342" depart="5130.00" from="E21M" to="E57L" via="1084220439#0" />
    <trip id="343" depart="5145.00" from="E9S" to="E47XL" via="107221158#6" />
    <trip id="344" depart="5160.00" from="E36M" to="E50XXL" via="1084220439#0" />
    <trip id="345" depart="5175.00" from="E5M" to="E57L" via="503491597#1" />
    <trip id="346" depart="5190.00" from="E17M" to="E50XXL" via="107221158#6" />
    <trip id="347" depart="5205.00" from="E31M" to="E50XXL" via="1084220439#0" />
    <trip id="348" depart="5220.00" from="E15L" to="E46XL" via="-36777680#9" />
    <trip id="349" depart="5235.00" from="E7S" to="E46XL" via="107221158#6" />
    <trip id="350" depart="5250.00" from="-E49M" to="E46XL" via="1084220439#0" />
    <trip id="351" depart="5265.00" from="E26XL" to="E50XXL" via="-36777680#9" />
    <trip id="352" depart="5280.00" from="E8S" to="E46XL" via="503491597#1" />
    <trip id="353" depart="5295.00" from="E4S" to="E47XL" via="-36777680#9" />
    <trip id="354" depart="5310.00" from="E13XL" to="E46XL" via="-36777680#9" />
    <trip id="355" depart="5325.00" from="E26XL" to="E46XL" via="503491597#1" />
    <trip id="356" depart="5340.00" from="E40S" to="E47XL" via="107221158#6" />
    <trip id="357" depart="5355.00" from="E5M" to="E46XL" via="107221158#6" />
    <trip id="358" depart="5370.00" from="E39M" to="E46XL" via="503491597#1" />
    <trip id="359" depart="5385.00" from="E55L" to="E46XL" via="-36777680#9" />
    <trip id="360" depart="5400.00" from="E36M" to="E46XL" via="-36777680#9" />
    <trip id="361" depart="5415.00" from="E17M" to="E47XL" via="503491597#1" />
    <trip id="362" depart="5430.00" from="E52S" to="E46XL" via="-36777680#9" />
    <trip id="363" depart="5445.00" from="E26XL" to="E50XXL" via="-36777680#9" />
    <trip id="364" depart="5460.00" from="E17M" to="E47XL" via="1084220439#0" />
    <trip id="365" depart="5475.00" from="E41SS" to="E47XL" via="503491597#1" />
    <trip id="366" depart="5490.00" from="E4S" to="E47XL" via="107221158#6" />
    <trip id="367" depart="5505.00" from="E16M" to="E47XL" via="1084220439#0" />
    <trip id="368" depart="5520.00" from="E54L" to="E46XL" via="107221158#6" />
    <trip id="369" depart="5535.00" from="E53L" to="E57L" via="107221158#6" />
    <trip id="370" depart="5550.00" from="E42SS" to="E57L" via="-36777680#9" />
    <trip id="371" depart="5565.00" from="E24M" to="E50XXL" via="-36777680#9" />
    <trip id="372" depart="5580.00" from="E36M" to="E46XL" via="1084220439#0" />
    <trip id="373" depart="5595.00" from="E4S" to="E47XL" via="107221158#6" />