<?xml version="1.0" encoding="UTF-8"?>

<!-- generated on 2024-06-19 22:15:22 by Eclipse SUMO netedit Version v1_20_0+0067-0afb14a3f29
-->

<additional xmlns:xsi="http://www.w3.org/2001/XMLSchema-instance" xsi:noNamespaceSchemaLocation="http://sumo.dlr.de/xsd/additional_file.xsd">
    <!-- TAZs -->
    <taz id="taz_0" shape="6046.26,4487.16 6927.77,4418.17 6751.47,3391.01 6107.58,3513.66 6048.53,4480.05 6046.26,4487.16" color="blue">
        <tazSource id="-1185436563#1" weight="1.00"/>
        <tazSink id="-1185436563#1" weight="1.00"/>
        <tazSource id="-36732218#0" weight="1.00"/>
        <tazSink id="-36732218#0" weight="1.00"/>
        <tazSource id="-36732218#1" weight="1.00"/>
        <tazSink id="-36732218#1" weight="1.00"/>
        <tazSource id="-36732218#2" weight="1.00"/>
        <tazSink id="-36732218#2" weight="1.00"/>
        <tazSource id="-36732218#3" weight="1.00"/>
        <tazSink id="-36732218#3" weight="1.00"/>
        <tazSource id="-36732221#1" weight="1.00"/>
        <tazSink id="-36732221#1" weight="1.00"/>
        <tazSource id="-36732221#3" weight="1.00"/>
        <tazSink id="-36732221#3" weight="1.00"/>
        <tazSource id="-36732222#0" weight="1.00"/>
        <tazSink id="-36732222#0" weight="1.00"/>
        <tazSource id="-36732222#1" weight="1.00"/>
        <tazSink id="-36732222#1" weight="1.00"/>
        <tazSource id="-38978161#1" weight="1.00"/>
        <tazSink id="-38978161#1" weight="1.00"/>
        <tazSource id="-732016010" weight="1.00"/>
        <tazSink id="-732016010" weight="1.00"/>
        <tazSource id="-93032283#0" weight="1.00"/>
        <tazSink id="-93032283#0" weight="1.00"/>
        <tazSource id="-93032283#2" weight="1.00"/>
        <tazSink id="-93032283#2" weight="1.00"/>
        <tazSource id="-94440609#0" weight="1.00"/>
        <tazSink id="-94440609#0" weight="1.00"/>
        <tazSource id="-94440609#1" weight="1.00"/>
        <tazSink id="-94440609#1" weight="1.00"/>
        <tazSource id="-94440609#2" weight="1.00"/>
        <tazSink id="-94440609#2" weight="1.00"/>
        <tazSource id="-94440648#1" weight="1.00"/>
        <tazSink id="-94440648#1" weight="1.00"/>
        <tazSource id="-94440653#0" weight="1.00"/>
        <tazSink id="-94440653#0" weight="1.00"/>
        <tazSource id="-94440653#1" weight="1.00"/>
        <tazSink id="-94440653#1" weight="1.00"/>
        <tazSource id="1092252704" weight="1.00"/>
        <tazSink id="1092252704" weight="1.00"/>
        <tazSource id="1092252706" weight="1.00"/>
        <tazSink id="1092252706" weight="1.00"/>
        <tazSource id="1275535664" weight="1.00"/>
        <tazSink id="1275535664" weight="1.00"/>
        <tazSource id="1278171779" weight="1.00"/>
        <tazSink id="1278171779" weight="1.00"/>
        <tazSource id="36732218#0" weight="1.00"/>
        <tazSink id="36732218#0" weight="1.00"/>
        <tazSource id="36732218#1" weight="1.00"/>
        <tazSink id="36732218#1" weight="1.00"/>
        <tazSource id="36732218#2" weight="1.00"/>
        <tazSink id="36732218#2" weight="1.00"/>
        <tazSource id="36732218#3" weight="1.00"/>
        <tazSink id="36732218#3" weight="1.00"/>
        <tazSource id="36732221#0" weight="1.00"/>
        <tazSink id="36732221#0" weight="1.00"/>
        <tazSource id="36732221#2" weight="1.00"/>
        <tazSink id="36732221#2" weight="1.00"/>
        <tazSource id="36732222#0" weight="1.00"/>
        <tazSink id="36732222#0" weight="1.00"/>
        <tazSource id="36732222#1" weight="1.00"/>
        <tazSink id="36732222#1" weight="1.00"/>
        <tazSource id="36732229#2" weight="1.00"/>
        <tazSink id="36732229#2" weight="1.00"/>
        <tazSource id="38978161#1" weight="1.00"/>
        <tazSink id="38978161#1" weight="1.00"/>
        <tazSource id="38978161#2" weight="1.00"/>
        <tazSink id="38978161#2" weight="1.00"/>
        <tazSource id="50223370#0" weight="1.00"/>
        <tazSink id="50223370#0" weight="1.00"/>
        <tazSource id="50223370#1" weight="1.00"/>
        <tazSink id="50223370#1" weight="1.00"/>
        <tazSource id="732016010" weight="1.00"/>
        <tazSink id="732016010" weight="1.00"/>
        <tazSource id="93032283#0" weight="1.00"/>
        <tazSink id="93032283#0" weight="1.00"/>
        <tazSource id="93032283#1" weight="1.00"/>
        <tazSink id="93032283#1" weight="1.00"/>
        <tazSource id="94440609#1" weight="1.00"/>
        <tazSink id="94440609#1" weight="1.00"/>
        <tazSource id="94440609#2" weight="1.00"/>
        <tazSink id="94440609#2" weight="1.00"/>
        <tazSource id="94440648#0" weight="1.00"/>
        <tazSink id="94440648#0" weight="1.00"/>
        <tazSource id="94440653#0" weight="1.00"/>
        <tazSink id="94440653#0" weight="1.00"/>
        <tazSource id="94440653#1" weight="1.00"/>
        <tazSink id="94440653#1" weight="1.00"/>
        <tazSource id="94440653#2" weight="1.00"/>
        <tazSink id="94440653#2" weight="1.00"/>
    </taz>
    <taz id="taz_1" shape="4831.37,1401.66 6218.79,2113.70 6056.49,1045.65 5375.87,946.17 4878.49,1145.12 4843.46,1388.85 4831.37,1401.66" color="blue">
        <tazSource id="-133338651#0" weight="1.00"/>
        <tazSink id="-133338651#0" weight="1.00"/>
        <tazSource id="-133338651#1" weight="1.00"/>
        <tazSink id="-133338651#1" weight="1.00"/>
        <tazSource id="-133338651#2" weight="1.00"/>
        <tazSink id="-133338651#2" weight="1.00"/>
        <tazSource id="-139237577#0" weight="1.00"/>
        <tazSink id="-139237577#0" weight="1.00"/>
        <tazSource id="-192184219#0" weight="1.00"/>
        <tazSink id="-192184219#0" weight="1.00"/>
        <tazSource id="-192184219#1" weight="1.00"/>
        <tazSink id="-192184219#1" weight="1.00"/>
        <tazSource id="-38033033" weight="1.00"/>
        <tazSink id="-38033033" weight="1.00"/>
        <tazSource id="-458439807#1" weight="1.00"/>
        <tazSink id="-458439807#1" weight="1.00"/>
        <tazSource id="-458439807#2" weight="1.00"/>
        <tazSink id="-458439807#2" weight="1.00"/>
        <tazSource id="-503401184" weight="1.00"/>
        <tazSink id="-503401184" weight="1.00"/>
        <tazSource id="-544743185" weight="1.00"/>
        <tazSink id="-544743185" weight="1.00"/>
        <tazSource id="-545806414#1" weight="1.00"/>
        <tazSink id="-545806414#1" weight="1.00"/>
        <tazSource id="-89418687#3" weight="1.00"/>
        <tazSink id="-89418687#3" weight="1.00"/>
        <tazSource id="-89432745#0" weight="1.00"/>
        <tazSink id="-89432745#0" weight="1.00"/>
        <tazSource id="-89432745#1" weight="1.00"/>
        <tazSink id="-89432745#1" weight="1.00"/>
        <tazSource id="-94520049" weight="1.00"/>
        <tazSink id="-94520049" weight="1.00"/>
        <tazSource id="133338651#0" weight="1.00"/>
        <tazSink id="133338651#0" weight="1.00"/>
        <tazSource id="133338651#1" weight="1.00"/>
        <tazSink id="133338651#1" weight="1.00"/>
        <tazSource id="133338651#2" weight="1.00"/>
        <tazSink id="133338651#2" weight="1.00"/>
        <tazSource id="142472878" weight="1.00"/>
        <tazSink id="142472878" weight="1.00"/>
        <tazSource id="192184219#0" weight="1.00"/>
        <tazSink id="192184219#0" weight="1.00"/>
        <tazSource id="192184219#1" weight="1.00"/>
        <tazSink id="192184219#1" weight="1.00"/>
        <tazSource id="38033033" weight="1.00"/>
        <tazSink id="38033033" weight="1.00"/>
        <tazSource id="458439807#2" weight="1.00"/>
        <tazSink id="458439807#2" weight="1.00"/>
        <tazSource id="458439807#3" weight="1.00"/>
        <tazSink id="458439807#3" weight="1.00"/>
        <tazSource id="464288502#0" weight="1.00"/>
        <tazSink id="464288502#0" weight="1.00"/>
        <tazSource id="490296796" weight="1.00"/>
        <tazSink id="490296796" weight="1.00"/>
        <tazSource id="503401185" weight="1.00"/>
        <tazSink id="503401185" weight="1.00"/>
        <tazSource id="544743185" weight="1.00"/>
        <tazSink id="544743185" weight="1.00"/>
        <tazSource id="545806414#1" weight="1.00"/>
        <tazSink id="545806414#1" weight="1.00"/>
        <tazSource id="89418687#1" weight="1.00"/>
        <tazSink id="89418687#1" weight="1.00"/>
        <tazSource id="89432745#1" weight="1.00"/>
        <tazSink id="89432745#1" weight="1.00"/>
        <tazSource id="94520049" weight="1.00"/>
        <tazSink id="94520049" weight="1.00"/>
    </taz>
    <taz id="taz_10" shape="10019.33,5035.24 9555.58,3332.00 9564.01,2935.70 10584.27,2025.06 11081.75,3036.88 10449.36,3534.36 10643.29,4529.33 10044.63,5035.24 10019.33,5035.24" color="blue">
        <tazSource id="-1227944633" weight="1.00"/>
        <tazSink id="-1227944633" weight="1.00"/>
        <tazSource id="-1249434047#0" weight="1.00"/>
        <tazSink id="-1249434047#0" weight="1.00"/>
        <tazSource id="-1249455185" weight="1.00"/>
        <tazSink id="-1249455185" weight="1.00"/>
        <tazSource id="-1249455187" weight="1.00"/>
        <tazSink id="-1249455187" weight="1.00"/>
        <tazSource id="-133882079" weight="1.00"/>
        <tazSink id="-133882079" weight="1.00"/>
        <tazSource id="-269819741" weight="1.00"/>
        <tazSink id="-269819741" weight="1.00"/>
        <tazSource id="-327073709#1" weight="1.00"/>
        <tazSink id="-327073709#1" weight="1.00"/>
        <tazSource id="-335426783" weight="1.00"/>
        <tazSink id="-335426783" weight="1.00"/>
        <tazSource id="-36982676#3" weight="1.00"/>
        <tazSink id="-36982676#3" weight="1.00"/>
        <tazSource id="-36982682#1" weight="1.00"/>
        <tazSink id="-36982682#1" weight="1.00"/>
        <tazSource id="-36982682#3" weight="1.00"/>
        <tazSink id="-36982682#3" weight="1.00"/>
        <tazSource id="-36982682#4" weight="1.00"/>
        <tazSink id="-36982682#4" weight="1.00"/>
        <tazSource id="-36982682#5" weight="1.00"/>
        <tazSink id="-36982682#5" weight="1.00"/>
        <tazSource id="-36982682#7" weight="1.00"/>
        <tazSink id="-36982682#7" weight="1.00"/>
        <tazSource id="-38033038#1" weight="1.00"/>
        <tazSink id="-38033038#1" weight="1.00"/>
        <tazSource id="-38033038#2" weight="1.00"/>
        <tazSink id="-38033038#2" weight="1.00"/>
        <tazSource id="-400447570#0" weight="1.00"/>
        <tazSink id="-400447570#0" weight="1.00"/>
        <tazSource id="-400447570#1" weight="1.00"/>
        <tazSink id="-400447570#1" weight="1.00"/>
        <tazSource id="-45738836#0" weight="1.00"/>
        <tazSink id="-45738836#0" weight="1.00"/>
        <tazSource id="-45738836#1" weight="1.00"/>
        <tazSink id="-45738836#1" weight="1.00"/>
        <tazSource id="-45738852#0" weight="1.00"/>
        <tazSink id="-45738852#0" weight="1.00"/>
        <tazSource id="-45739943#1" weight="1.00"/>
        <tazSink id="-45739943#1" weight="1.00"/>
        <tazSource id="-607746817" weight="1.00"/>
        <tazSink id="-607746817" weight="1.00"/>
        <tazSource id="-654363490" weight="1.00"/>
        <tazSink id="-654363490" weight="1.00"/>
        <tazSource id="-71516173" weight="1.00"/>
        <tazSink id="-71516173" weight="1.00"/>
        <tazSource id="-71516177" weight="1.00"/>
        <tazSink id="-71516177" weight="1.00"/>
        <tazSource id="-773825314#3" weight="1.00"/>
        <tazSink id="-773825314#3" weight="1.00"/>
        <tazSource id="-775548355" weight="1.00"/>
        <tazSink id="-775548355" weight="1.00"/>
        <tazSource id="1083263216#0" weight="1.00"/>
        <tazSink id="1083263216#0" weight="1.00"/>
        <tazSource id="1083263216#10" weight="1.00"/>
        <tazSink id="1083263216#10" weight="1.00"/>
        <tazSource id="1083263216#7" weight="1.00"/>
        <tazSink id="1083263216#7" weight="1.00"/>
        <tazSource id="1083263216#8" weight="1.00"/>
        <tazSink id="1083263216#8" weight="1.00"/>
        <tazSource id="1134422477#0" weight="1.00"/>
        <tazSink id="1134422477#0" weight="1.00"/>
        <tazSource id="1196782223" weight="1.00"/>
        <tazSink id="1196782223" weight="1.00"/>
        <tazSource id="1249434047#0" weight="1.00"/>
        <tazSink id="1249434047#0" weight="1.00"/>
        <tazSource id="1249455185" weight="1.00"/>
        <tazSink id="1249455185" weight="1.00"/>
        <tazSource id="1249455187" weight="1.00"/>
        <tazSink id="1249455187" weight="1.00"/>
        <tazSource id="133882079" weight="1.00"/>
        <tazSink id="133882079" weight="1.00"/>
        <tazSource id="269819742" weight="1.00"/>
        <tazSink id="269819742" weight="1.00"/>
        <tazSource id="327073709#1" weight="1.00"/>
        <tazSink id="327073709#1" weight="1.00"/>
        <tazSource id="335426783" weight="1.00"/>
        <tazSink id="335426783" weight="1.00"/>
        <tazSource id="36982676#0" weight="1.00"/>
        <tazSink id="36982676#0" weight="1.00"/>
        <tazSource id="36982682#1" weight="1.00"/>
        <tazSink id="36982682#1" weight="1.00"/>
        <tazSource id="36982682#2" weight="1.00"/>
        <tazSink id="36982682#2" weight="1.00"/>
        <tazSource id="36982682#4" weight="1.00"/>
        <tazSink id="36982682#4" weight="1.00"/>
        <tazSource id="36982682#5" weight="1.00"/>
        <tazSink id="36982682#5" weight="1.00"/>
        <tazSource id="36982682#7" weight="1.00"/>
        <tazSink id="36982682#7" weight="1.00"/>
        <tazSource id="36982684" weight="1.00"/>
        <tazSink id="36982684" weight="1.00"/>
        <tazSource id="36982686" weight="1.00"/>
        <tazSink id="36982686" weight="1.00"/>
        <tazSource id="36982689" weight="1.00"/>
        <tazSink id="36982689" weight="1.00"/>
        <tazSource id="38033038#0" weight="1.00"/>
        <tazSink id="38033038#0" weight="1.00"/>
        <tazSource id="38033038#2" weight="1.00"/>
        <tazSink id="38033038#2" weight="1.00"/>
        <tazSource id="400447570#1" weight="1.00"/>
        <tazSink id="400447570#1" weight="1.00"/>
        <tazSource id="45738836#0" weight="1.00"/>
        <tazSink id="45738836#0" weight="1.00"/>
        <tazSource id="45738836#1" weight="1.00"/>
        <tazSink id="45738836#1" weight="1.00"/>
        <tazSource id="45738849" weight="1.00"/>
        <tazSink id="45738849" weight="1.00"/>
        <tazSource id="45738852#0" weight="1.00"/>
        <tazSink id="45738852#0" weight="1.00"/>
        <tazSource id="45739943#0" weight="1.00"/>
        <tazSink id="45739943#0" weight="1.00"/>
        <tazSource id="503306656" weight="1.00"/>
        <tazSink id="503306656" weight="1.00"/>
        <tazSource id="503306657#0" weight="1.00"/>
        <tazSink id="503306657#0" weight="1.00"/>
        <tazSource id="503306661" weight="1.00"/>
        <tazSink id="503306661" weight="1.00"/>
        <tazSource id="607746816#0" weight="1.00"/>
        <tazSink id="607746816#0" weight="1.00"/>
        <tazSource id="607746816#1" weight="1.00"/>
        <tazSink id="607746816#1" weight="1.00"/>
        <tazSource id="607746816#3" weight="1.00"/>
        <tazSink id="607746816#3" weight="1.00"/>
        <tazSource id="607746816#4" weight="1.00"/>
        <tazSink id="607746816#4" weight="1.00"/>
        <tazSource id="654363490" weight="1.00"/>
        <tazSink id="654363490" weight="1.00"/>
        <tazSource id="71516175" weight="1.00"/>
        <tazSink id="71516175" weight="1.00"/>
        <tazSource id="71516177" weight="1.00"/>
        <tazSink id="71516177" weight="1.00"/>
        <tazSource id="733073734" weight="1.00"/>
        <tazSink id="733073734" weight="1.00"/>
        <tazSource id="773825314#0" weight="1.00"/>
        <tazSink id="773825314#0" weight="1.00"/>
        <tazSource id="775548354" weight="1.00"/>
        <tazSink id="775548354" weight="1.00"/>
        <tazSource id="775548355" weight="1.00"/>
        <tazSink id="775548355" weight="1.00"/>
        <tazSource id="775548356" weight="1.00"/>
        <tazSink id="775548356" weight="1.00"/>
        <tazSource id="775548358" weight="1.00"/>
        <tazSink id="775548358" weight="1.00"/>
        <tazSource id="775548359" weight="1.00"/>
        <tazSink id="775548359" weight="1.00"/>
        <tazSource id="778937358#1" weight="1.00"/>
        <tazSink id="778937358#1" weight="1.00"/>
    </taz>
    <taz id="taz_11" shape="8181.69,4394.17 8196.00,4176.04 9440.42,3757.65 9486.91,4111.67 8206.72,4415.63 8181.69,4394.17" color="blue">
        <tazSource id="-1156278591" weight="1.00"/>
        <tazSink id="-1156278591" weight="1.00"/>
        <tazSource id="-1156278593" weight="1.00"/>
        <tazSink id="-1156278593" weight="1.00"/>
        <tazSource id="-175293923" weight="1.00"/>
        <tazSink id="-175293923" weight="1.00"/>
        <tazSource id="-37107652" weight="1.00"/>
        <tazSink id="-37107652" weight="1.00"/>
        <tazSource id="-458682709#0" weight="1.00"/>
        <tazSink id="-458682709#0" weight="1.00"/>
        <tazSource id="1156278591" weight="1.00"/>
        <tazSink id="1156278591" weight="1.00"/>
        <tazSource id="1156278593" weight="1.00"/>
        <tazSink id="1156278593" weight="1.00"/>
        <tazSource id="175293923" weight="1.00"/>
        <tazSink id="175293923" weight="1.00"/>
        <tazSource id="37107652" weight="1.00"/>
        <tazSink id="37107652" weight="1.00"/>
        <tazSource id="458682709#0" weight="1.00"/>
        <tazSink id="458682709#0" weight="1.00"/>
    </taz>
    <taz id="taz_2" shape="5158.70,4038.22 5925.23,3616.63 6147.53,2681.45 5603.29,2305.85 5541.97,1976.24 4691.11,1500.99 5143.37,3969.23 5158.70,4038.22" color="blue">
        <tazSource id="-1096194742#1" weight="1.00"/>
        <tazSink id="-1096194742#1" weight="1.00"/>
        <tazSource id="-1096194742#2" weight="1.00"/>
        <tazSink id="-1096194742#2" weight="1.00"/>
        <tazSource id="-1155959630" weight="1.00"/>
        <tazSink id="-1155959630" weight="1.00"/>
        <tazSource id="-1155959631" weight="1.00"/>
        <tazSink id="-1155959631" weight="1.00"/>
        <tazSource id="-1155959633#2" weight="1.00"/>
        <tazSink id="-1155959633#2" weight="1.00"/>
        <tazSource id="-1155959635#2" weight="1.00"/>
        <tazSink id="-1155959635#2" weight="1.00"/>
        <tazSource id="-1155959637#2" weight="1.00"/>
        <tazSink id="-1155959637#2" weight="1.00"/>
        <tazSource id="-1205179033" weight="1.00"/>
        <tazSink id="-1205179033" weight="1.00"/>
        <tazSource id="-1227932447" weight="1.00"/>
        <tazSink id="-1227932447" weight="1.00"/>
        <tazSource id="-1271968930#1" weight="1.00"/>
        <tazSink id="-1271968930#1" weight="1.00"/>
        <tazSource id="-1271968932#0" weight="1.00"/>
        <tazSink id="-1271968932#0" weight="1.00"/>
        <tazSource id="-139263631#1" weight="1.00"/>
        <tazSink id="-139263631#1" weight="1.00"/>
        <tazSource id="-142740894" weight="1.00"/>
        <tazSink id="-142740894" weight="1.00"/>
        <tazSource id="-195557073" weight="1.00"/>
        <tazSink id="-195557073" weight="1.00"/>
        <tazSource id="-195557079" weight="1.00"/>
        <tazSink id="-195557079" weight="1.00"/>
        <tazSource id="-195557080#4" weight="1.00"/>
        <tazSink id="-195557080#4" weight="1.00"/>
        <tazSource id="-199024196" weight="1.00"/>
        <tazSink id="-199024196" weight="1.00"/>
        <tazSource id="-328778564" weight="1.00"/>
        <tazSink id="-328778564" weight="1.00"/>
        <tazSource id="-328778565#2" weight="1.00"/>
        <tazSink id="-328778565#2" weight="1.00"/>
        <tazSource id="-328826750" weight="1.00"/>
        <tazSink id="-328826750" weight="1.00"/>
        <tazSource id="-328826752" weight="1.00"/>
        <tazSink id="-328826752" weight="1.00"/>
        <tazSource id="-334955601#1" weight="1.00"/>
        <tazSink id="-334955601#1" weight="1.00"/>
        <tazSource id="-37838182#10" weight="1.00"/>
        <tazSink id="-37838182#10" weight="1.00"/>
        <tazSource id="-37838182#12" weight="1.00"/>
        <tazSink id="-37838182#12" weight="1.00"/>
        <tazSource id="-37838182#2" weight="1.00"/>
        <tazSink id="-37838182#2" weight="1.00"/>
        <tazSource id="-37838182#7" weight="1.00"/>
        <tazSink id="-37838182#7" weight="1.00"/>
        <tazSource id="-37838182#9" weight="1.00"/>
        <tazSink id="-37838182#9" weight="1.00"/>
        <tazSource id="-38044471#2" weight="1.00"/>
        <tazSink id="-38044471#2" weight="1.00"/>
        <tazSource id="-38968967#1" weight="1.00"/>
        <tazSink id="-38968967#1" weight="1.00"/>
        <tazSource id="-38968967#10" weight="1.00"/>
        <tazSink id="-38968967#10" weight="1.00"/>
        <tazSource id="-38968969#1" weight="1.00"/>
        <tazSink id="-38968969#1" weight="1.00"/>
        <tazSource id="-38968969#2" weight="1.00"/>
        <tazSink id="-38968969#2" weight="1.00"/>
        <tazSource id="-38968987" weight="1.00"/>
        <tazSink id="-38968987" weight="1.00"/>
        <tazSource id="-38968993#0" weight="1.00"/>
        <tazSink id="-38968993#0" weight="1.00"/>
        <tazSource id="-464288501#0" weight="1.00"/>
        <tazSink id="-464288501#0" weight="1.00"/>
        <tazSource id="-503401173#1" weight="1.00"/>
        <tazSink id="-503401173#1" weight="1.00"/>
        <tazSource id="-503401176" weight="1.00"/>
        <tazSink id="-503401176" weight="1.00"/>
        <tazSource id="-89433043" weight="1.00"/>
        <tazSink id="-89433043" weight="1.00"/>
        <tazSource id="-925584474" weight="1.00"/>
        <tazSink id="-925584474" weight="1.00"/>
        <tazSource id="1055599191#8" weight="1.00"/>
        <tazSink id="1055599191#8" weight="1.00"/>
        <tazSource id="1096194742#0" weight="1.00"/>
        <tazSink id="1096194742#0" weight="1.00"/>
        <tazSource id="1096194742#2" weight="1.00"/>
        <tazSink id="1096194742#2" weight="1.00"/>
        <tazSource id="1101638406" weight="1.00"/>
        <tazSink id="1101638406" weight="1.00"/>
        <tazSource id="1155959630" weight="1.00"/>
        <tazSink id="1155959630" weight="1.00"/>
        <tazSource id="1155959631" weight="1.00"/>
        <tazSink id="1155959631" weight="1.00"/>
        <tazSource id="1155959633#0" weight="1.00"/>
        <tazSink id="1155959633#0" weight="1.00"/>
        <tazSource id="1155959637#0" weight="1.00"/>
        <tazSink id="1155959637#0" weight="1.00"/>
        <tazSource id="1192261957" weight="1.00"/>
        <tazSink id="1192261957" weight="1.00"/>
        <tazSource id="1199334004" weight="1.00"/>
        <tazSink id="1199334004" weight="1.00"/>
        <tazSource id="1271968932#0" weight="1.00"/>
        <tazSink id="1271968932#0" weight="1.00"/>
        <tazSource id="1271968932#1" weight="1.00"/>
        <tazSink id="1271968932#1" weight="1.00"/>
        <tazSource id="139263631#0" weight="1.00"/>
        <tazSink id="139263631#0" weight="1.00"/>
        <tazSource id="142371931" weight="1.00"/>
        <tazSink id="142371931" weight="1.00"/>
        <tazSource id="195557073" weight="1.00"/>
        <tazSink id="195557073" weight="1.00"/>
        <tazSource id="195557077#0" weight="1.00"/>
        <tazSink id="195557077#0" weight="1.00"/>
        <tazSource id="328778564" weight="1.00"/>
        <tazSink id="328778564" weight="1.00"/>
        <tazSource id="328778565#1" weight="1.00"/>
        <tazSink id="328778565#1" weight="1.00"/>
        <tazSource id="328826752" weight="1.00"/>
        <tazSink id="328826752" weight="1.00"/>
        <tazSource id="37838182#10" weight="1.00"/>
        <tazSink id="37838182#10" weight="1.00"/>
        <tazSource id="37838182#12" weight="1.00"/>
        <tazSink id="37838182#12" weight="1.00"/>
        <tazSource id="37838182#2" weight="1.00"/>
        <tazSink id="37838182#2" weight="1.00"/>
        <tazSource id="37838182#4" weight="1.00"/>
        <tazSink id="37838182#4" weight="1.00"/>
        <tazSource id="37838182#8" weight="1.00"/>
        <tazSink id="37838182#8" weight="1.00"/>
        <tazSource id="38044471#0" weight="1.00"/>
        <tazSink id="38044471#0" weight="1.00"/>
        <tazSource id="38968967#3" weight="1.00"/>
        <tazSink id="38968967#3" weight="1.00"/>
        <tazSource id="38968969#0" weight="1.00"/>
        <tazSink id="38968969#0" weight="1.00"/>
        <tazSource id="38968969#2" weight="1.00"/>
        <tazSink id="38968969#2" weight="1.00"/>
        <tazSource id="38968987" weight="1.00"/>
        <tazSink id="38968987" weight="1.00"/>
        <tazSource id="464288501#0" weight="1.00"/>
        <tazSink id="464288501#0" weight="1.00"/>
        <tazSource id="503401172" weight="1.00"/>
        <tazSink id="503401172" weight="1.00"/>
        <tazSource id="503401173#1" weight="1.00"/>
        <tazSink id="503401173#1" weight="1.00"/>
        <tazSource id="503401173#2" weight="1.00"/>
        <tazSink id="503401173#2" weight="1.00"/>
        <tazSource id="503401175" weight="1.00"/>
        <tazSink id="503401175" weight="1.00"/>
        <tazSource id="503401176" weight="1.00"/>
        <tazSink id="503401176" weight="1.00"/>
        <tazSource id="94440612" weight="1.00"/>
        <tazSink id="94440612" weight="1.00"/>
    </taz>
    <taz id="taz_3" shape="3829.15,4805.59 4323.28,4520.52 3993.86,3906.02 3480.72,4203.77 3812.76,4772.22 3829.15,4805.59" color="blue">
        <tazSource id="-1280759667#1" weight="1.00"/>
        <tazSink id="-1280759667#1" weight="1.00"/>
        <tazSource id="-36718168#4" weight="1.00"/>
        <tazSink id="-36718168#4" weight="1.00"/>
        <tazSource id="-47988592#2" weight="1.00"/>
        <tazSink id="-47988592#2" weight="1.00"/>
        <tazSource id="-47988592#6" weight="1.00"/>
        <tazSink id="-47988592#6" weight="1.00"/>
        <tazSource id="-47988592#8" weight="1.00"/>
        <tazSink id="-47988592#8" weight="1.00"/>
        <tazSource id="1112519722#0" weight="1.00"/>
        <tazSink id="1112519722#0" weight="1.00"/>
        <tazSource id="1183355780#1" weight="1.00"/>
        <tazSink id="1183355780#1" weight="1.00"/>
        <tazSource id="1183355781#1" weight="1.00"/>
        <tazSink id="1183355781#1" weight="1.00"/>
        <tazSource id="1185206865#1" weight="1.00"/>
        <tazSink id="1185206865#1" weight="1.00"/>
        <tazSource id="1227775535#0" weight="1.00"/>
        <tazSink id="1227775535#0" weight="1.00"/>
        <tazSource id="1227775535#7" weight="1.00"/>
        <tazSink id="1227775535#7" weight="1.00"/>
        <tazSource id="1280545318#0" weight="1.00"/>
        <tazSink id="1280545318#0" weight="1.00"/>
        <tazSource id="1280545319#0" weight="1.00"/>
        <tazSink id="1280545319#0" weight="1.00"/>
        <tazSource id="1280545322#0" weight="1.00"/>
        <tazSink id="1280545322#0" weight="1.00"/>
        <tazSource id="1280553797#0" weight="1.00"/>
        <tazSink id="1280553797#0" weight="1.00"/>
        <tazSource id="1280759664" weight="1.00"/>
        <tazSink id="1280759664" weight="1.00"/>
        <tazSource id="1280759667#0" weight="1.00"/>
        <tazSink id="1280759667#0" weight="1.00"/>
        <tazSource id="28065637#0" weight="1.00"/>
        <tazSink id="28065637#0" weight="1.00"/>
        <tazSource id="28065637#1" weight="1.00"/>
        <tazSink id="28065637#1" weight="1.00"/>
        <tazSource id="36718168#0" weight="1.00"/>
        <tazSink id="36718168#0" weight="1.00"/>
        <tazSource id="46949186#0" weight="1.00"/>
        <tazSink id="46949186#0" weight="1.00"/>
        <tazSource id="46949186#4" weight="1.00"/>
        <tazSink id="46949186#4" weight="1.00"/>
        <tazSource id="47988552" weight="1.00"/>
        <tazSink id="47988552" weight="1.00"/>
        <tazSource id="47988585#1" weight="1.00"/>
        <tazSink id="47988585#1" weight="1.00"/>
        <tazSource id="47988592#0" weight="1.00"/>
        <tazSink id="47988592#0" weight="1.00"/>
        <tazSource id="47988592#4" weight="1.00"/>
        <tazSink id="47988592#4" weight="1.00"/>
        <tazSource id="47988592#8" weight="1.00"/>
        <tazSink id="47988592#8" weight="1.00"/>
    </taz>
    <taz id="taz_4" shape="5202.68,4489.00 7856.88,4698.87 6893.97,5945.72 5992.77,5933.38 5264.41,5661.79 5252.06,4624.80 5202.68,4489.00" color="blue">
        <tazSource id="-1033921610" weight="1.00"/>
        <tazSink id="-1033921610" weight="1.00"/>
        <tazSource id="-1198872998" weight="1.00"/>
        <tazSink id="-1198872998" weight="1.00"/>
        <tazSource id="-1275566925" weight="1.00"/>
        <tazSink id="-1275566925" weight="1.00"/>
        <tazSource id="-198251787#2" weight="1.00"/>
        <tazSink id="-198251787#2" weight="1.00"/>
        <tazSource id="-215430825#1" weight="1.00"/>
        <tazSink id="-215430825#1" weight="1.00"/>
        <tazSource id="-323113361" weight="1.00"/>
        <tazSink id="-323113361" weight="1.00"/>
        <tazSource id="-33133259#1" weight="1.00"/>
        <tazSink id="-33133259#1" weight="1.00"/>
        <tazSource id="-36732218#3" weight="1.00"/>
        <tazSink id="-36732218#3" weight="1.00"/>
        <tazSource id="-37107125#0" weight="1.00"/>
        <tazSink id="-37107125#0" weight="1.00"/>
        <tazSource id="-37107125#1" weight="1.00"/>
        <tazSink id="-37107125#1" weight="1.00"/>
        <tazSource id="-42372207#0" weight="1.00"/>