<?xml version="1.0" encoding="UTF-8"?>

<!-- generated on 2024-06-15 17:20:41 by Eclipse SUMO netedit Version 1.20.0
<configuration xmlns:xsi="http://www.w3.org/2001/XMLSchema-instance" xsi:noNamespaceSchemaLocation="http://sumo.dlr.de/xsd/neteditConfiguration.xsd">

    <input>
        <sumo-net-file value="C:\Users\Brij kishore sharma\Desktop\updated map\API\temp\Cubbon.net.xml"/>
    </input>

    <output>
        <output-file value="C:\Users\Brij kishore sharma\Desktop\updated map\API\temp\Cubbon.net.xml"/>
        <output.street-names value="true"/>
    </output>

    <processing>
        <geometry.min-radius.fix.railways value="false"/>
        <geometry.max-grade.fix value="false"/>
        <offset.disable-normalization value="true"/>
        <lefthand value="0"/>
    </processing>

    <junctions>
        <no-turnarounds value="true"/>
        <junctions.corner-detail value="5"/>
        <junctions.limit-turn-speed value="5.50"/>
        <rectangular-lane-cut value="0"/>
    </junctions>

    <pedestrian>
        <walkingareas value="0"/>
    </pedestrian>

</configuration>
-->

<net version="1.20" junctionCornerDetail="5" limitTurnSpeed="5.50" xmlns:xsi="http://www.w3.org/2001/XMLSchema-instance" xsi:noNamespaceSchemaLocation="http://sumo.dlr.de/xsd/net_file.xsd">

    <location netOffset="-779318.92,-1433354.33" convBoundary="0.00,0.00,4662.33,4505.01" origBoundary="77.574776,12.952774,77.617566,12.993681" projParameter="+proj=utm +zone=43 +ellps=WGS84 +datum=WGS84 +units=m +no_defs"/>

    <type id="highway.primary" priority="12" numLanes="2" speed="27.78" disallow="tram rail_urban rail rail_electric rail_fast ship container cable_car subway aircraft wheelchair scooter drone" oneway="0"/>
    <type id="highway.primary_link" priority="7" numLanes="1" speed="22.22" disallow="tram rail_urban rail rail_electric rail_fast ship container cable_car subway aircraft wheelchair scooter drone" oneway="0"/>
    <type id="highway.secondary" priority="11" numLanes="1" speed="27.78" disallow="tram rail_urban rail rail_electric rail_fast ship container cable_car subway aircraft wheelchair scooter drone" oneway="0"/>
    <type id="highway.secondary_link" priority="6" numLanes="1" speed="22.22" disallow="tram rail_urban rail rail_electric rail_fast ship container cable_car subway aircraft wheelchair scooter drone" oneway="0"/>
    <type id="highway.tertiary" priority="10" numLanes="1" speed="22.22" disallow="tram rail_urban rail rail_electric rail_fast ship container cable_car subway aircraft wheelchair scooter drone" oneway="0"/>
    <type id="highway.tertiary_link" priority="5" numLanes="1" speed="22.22" disallow="tram rail_urban rail rail_electric rail_fast ship container cable_car subway aircraft wheelchair scooter drone" oneway="0"/>
    <type id="highway.trunk" priority="13" numLanes="2" speed="27.78" disallow="pedestrian bicycle tram rail_urban rail rail_electric rail_fast ship container cable_car subway aircraft wheelchair scooter drone" oneway="0"/>

    <edge id=":10001371115_0" function="internal">
        <lane id=":10001371115_0_0" index="0" disallow="tram rail_urban rail rail_electric rail_fast ship container cable_car subway aircraft wheelchair scooter drone" speed="22.22" length="12.19" shape="3473.39,2809.75 3469.88,2798.08"/>
    </edge>
    <edge id=":10001371115_1" function="internal">
        <lane id=":10001371115_1_0" index="0" disallow="tram rail_urban rail rail_electric rail_fast ship container cable_car subway aircraft wheelchair scooter drone" speed="22.22" length="12.20" shape="3473.39,2809.75 3472.73,2806.55 3472.78,2803.79 3473.16,2800.99 3473.54,2797.67"/>
    </edge>
    <edge id=":10001402819_0" function="internal">
        <lane id=":10001402819_0_0" index="0" disallow="tram rail_urban rail rail_electric rail_fast ship container cable_car subway aircraft wheelchair scooter drone" speed="27.78" length="13.98" shape="3469.93,2784.08 3483.19,2779.67"/>
        <lane id=":10001402819_0_1" index="1" disallow="tram rail_urban rail rail_electric rail_fast ship container cable_car subway aircraft wheelchair scooter drone" speed="27.78" length="13.98" shape="3470.94,2787.12 3484.20,2782.70"/>
    </edge>
    <edge id=":10001402819_2" function="internal">
        <lane id=":10001402819_2_0" index="0" disallow="tram rail_urban rail rail_electric rail_fast ship container cable_car subway aircraft wheelchair scooter drone" speed="10.85" length="13.79" shape="3474.82,2792.10 3476.28,2788.87 3478.33,2786.23 3480.97,2784.17 3484.20,2782.70"/>
    </edge>
    <edge id=":10016225540_0" function="internal">
        <lane id=":10016225540_0_0" index="0" disallow="tram rail_urban rail rail_electric rail_fast ship container cable_car subway aircraft wheelchair scooter drone" speed="25.00" length="5.99" shape="1830.17,3382.82 1831.40,3381.56 1832.35,3380.80 1833.40,3380.15 1834.93,3379.23"/>
    </edge>
    <edge id=":10016225540_1" function="internal">
        <lane id=":10016225540_1_0" index="0" disallow="tram rail_urban rail rail_electric rail_fast ship container cable_car subway aircraft wheelchair scooter drone" speed="27.78" length="4.30" shape="1832.53,3384.98 1833.58,3383.86 1834.34,3383.14 1835.15,3382.48 1836.37,3381.54"/>
        <lane id=":10016225540_1_1" index="1" disallow="tram rail_urban rail rail_electric rail_fast ship container cable_car subway aircraft wheelchair scooter drone" speed="27.78" length="4.30" shape="1834.89,3387.14 1835.76,3386.21 1836.39,3385.60 1837.06,3385.05 1838.07,3384.27"/>
        <lane id=":10016225540_1_2" index="2" disallow="tram rail_urban rail rail_electric rail_fast ship container cable_car subway aircraft wheelchair scooter drone" speed="27.78" length="4.30" shape="1837.25,3389.30 1837.94,3388.55 1838.44,3388.07 1838.98,3387.62 1839.78,3386.99"/>
    </edge>
    <edge id=":10038553695_0" function="internal">
        <lane id=":10038553695_0_0" index="0" disallow="tram rail_urban rail rail_electric rail_fast ship container cable_car subway aircraft wheelchair scooter drone" speed="27.78" length="8.21" shape="1470.40,2602.15 1472.63,2603.08 1474.30,2603.37 1475.96,2603.66 1478.19,2604.60"/>
        <lane id=":10038553695_0_1" index="1" disallow="tram rail_urban rail rail_electric rail_fast ship container cable_car subway aircraft wheelchair scooter drone" speed="27.78" length="8.21" shape="1468.86,2604.95 1471.08,2605.89 1472.75,2606.17 1474.42,2606.46 1476.64,2607.40"/>
    </edge>
    <edge id=":10080463679_0" function="internal">
        <lane id=":10080463679_0_0" index="0" disallow="tram rail_urban rail rail_electric rail_fast ship container cable_car subway aircraft wheelchair scooter drone" speed="7.08" length="4.18" shape="3603.75,3184.00 3604.22,3185.13 3604.71,3185.84 3605.40,3186.36 3606.49,3186.93"/>
    </edge>
    <edge id=":10080463679_1" function="internal">
        <lane id=":10080463679_1_0" index="0" disallow="tram rail_urban rail rail_electric rail_fast ship container cable_car subway aircraft wheelchair scooter drone" speed="22.22" length="4.40" shape="3600.79,3185.20 3602.54,3189.24"/>
    </edge>
    <edge id=":10080463681_0" function="internal">
        <lane id=":10080463681_0_0" index="0" disallow="tram rail_urban rail rail_electric rail_fast ship container cable_car subway aircraft wheelchair scooter drone" speed="22.22" length="3.38" shape="3633.27,3191.63 3634.27,3191.55 3634.95,3191.45 3635.62,3191.28 3636.57,3190.97"/>
    </edge>
    <edge id=":10080463681_1" function="internal">
        <lane id=":10080463681_1_0" index="0" disallow="tram rail_urban rail rail_electric rail_fast ship container cable_car subway aircraft wheelchair scooter drone" speed="22.22" length="3.26" shape="3634.53,3195.14 3635.39,3194.72 3636.01,3194.49 3636.65,3194.30 3637.57,3194.01"/>
    </edge>
    <edge id=":10083741121_0" function="internal">
        <lane id=":10083741121_0_0" index="0" disallow="tram rail_urban rail rail_electric rail_fast ship container cable_car subway aircraft wheelchair scooter drone" speed="27.78" length="8.21" shape="2747.53,2634.97 2745.13,2634.79 2743.51,2634.29 2741.89,2633.79 2739.49,2633.61"/>
        <lane id=":10083741121_0_1" index="1" disallow="tram rail_urban rail rail_electric rail_fast ship container cable_car subway aircraft wheelchair scooter drone" speed="27.78" length="8.21" shape="2747.44,2631.77 2745.03,2631.59 2743.41,2631.09 2741.80,2630.59 2739.39,2630.41"/>
        <lane id=":10083741121_0_2" index="2" disallow="tram rail_urban rail rail_electric rail_fast ship container cable_car subway aircraft wheelchair scooter drone" speed="27.78" length="8.21" shape="2747.34,2628.57 2744.94,2628.39 2743.32,2627.89 2741.70,2627.39 2739.30,2627.21"/>
    </edge>
    <edge id=":10121158732_0" function="internal">
        <lane id=":10121158732_0_0" index="0" disallow="tram rail_urban rail rail_electric rail_fast ship container cable_car subway aircraft wheelchair scooter drone" speed="22.22" length="22.48" shape="1604.82,3666.02 1600.96,3661.32 1597.60,3658.31 1593.86,3655.40 1588.82,3651.01"/>
        <lane id=":10121158732_0_1" index="1" disallow="tram rail_urban rail rail_electric rail_fast ship container cable_car subway aircraft wheelchair scooter drone" speed="22.22" length="22.48" shape="1607.41,3664.14 1603.51,3659.40 1600.08,3656.28 1596.21,3653.22 1591.02,3648.68"/>
        <lane id=":10121158732_0_2" index="2" disallow="tram rail_urban rail rail_electric rail_fast ship container cable_car subway aircraft wheelchair scooter drone" speed="22.22" length="22.48" shape="1607.41,3664.14 1603.87,3659.05 1601.20,3655.14 1598.09,3651.29 1593.21,3646.36"/>
    </edge>
    <edge id=":10121158732_3" function="internal">
        <lane id=":10121158732_3_0" index="0" disallow="tram rail_urban rail rail_electric rail_fast ship container cable_car subway aircraft wheelchair scooter drone" speed="8.32" length="12.97" shape="1607.41,3664.14 1605.55,3660.87 1604.87,3657.80 1605.39,3654.94 1607.10,3652.28"/>
        <lane id=":10121158732_3_1" index="1" disallow="tram rail_urban rail rail_electric rail_fast ship container cable_car subway aircraft wheelchair scooter drone" speed="7.55" length="10.52" shape="1607.41,3664.14 1606.40,3662.01 1606.38,3659.72 1607.33,3657.27 1609.26,3654.66"/>
    </edge>
    <edge id=":10121158732_5" function="internal">
        <lane id=":10121158732_5_0" index="0" disallow="tram rail_urban rail rail_electric rail_fast ship container cable_car subway aircraft wheelchair scooter drone" speed="6.38" length="9.04" shape="1588.82,3658.83 1590.37,3656.88 1590.89,3654.92 1590.37,3652.97 1588.82,3651.01"/>
    </edge>
    <edge id=":10121158732_6" function="internal">
        <lane id=":10121158732_6_0" index="0" disallow="tram rail_urban rail rail_electric rail_fast ship container cable_car subway aircraft wheelchair scooter drone" speed="27.78" length="17.84" shape="1591.02,3661.16 1604.94,3649.89"/>
        <lane id=":10121158732_6_1" index="1" disallow="tram rail_urban rail rail_electric rail_fast ship container cable_car subway aircraft wheelchair scooter drone" speed="27.78" length="17.84" shape="1593.21,3663.48 1607.10,3652.28"/>
        <lane id=":10121158732_6_2" index="2" disallow="tram rail_urban rail rail_electric rail_fast ship container cable_car subway aircraft wheelchair scooter drone" speed="27.78" length="17.84" shape="1595.41,3665.81 1609.26,3654.66"/>
    </edge>
    <edge id=":10121158807_0" function="internal">
        <lane id=":10121158807_0_0" index="0" disallow="tram rail_urban rail rail_electric rail_fast ship container cable_car subway aircraft wheelchair scooter drone" speed="27.78" length="8.52" shape="1335.15,2569.53 1336.83,2567.73 1337.45,2565.97 1338.09,2564.25 1339.85,2562.56"/>
        <lane id=":10121158807_0_1" index="1" disallow="tram rail_urban rail rail_electric rail_fast ship container cable_car subway aircraft wheelchair scooter drone" speed="27.78" length="8.52" shape="1337.00,2572.14 1338.63,2570.37 1339.22,2568.63 1339.83,2566.93 1341.54,2565.28"/>
    </edge>
    <edge id=":10279595643_0" function="internal">
        <lane id=":10279595643_0_0" index="0" disallow="tram rail_urban rail rail_electric rail_fast ship container cable_car subway aircraft wheelchair scooter drone" speed="4.26" length="5.57" shape="511.11,3674.68 509.56,3673.69 508.62,3673.64 508.29,3674.52 508.57,3676.34"/>
    </edge>
    <edge id=":10279595643_1" function="internal">
        <lane id=":10279595643_1_0" index="0" disallow="tram rail_urban rail rail_electric rail_fast ship container cable_car subway aircraft wheelchair scooter drone" speed="22.22" length="9.83" shape="511.11,3674.68 508.68,3673.06 506.85,3672.11 505.22,3670.98 503.37,3668.80"/>
    </edge>
    <edge id=":10279595643_2" function="internal">
        <lane id=":10279595643_2_0" index="0" disallow="tram rail_urban rail rail_electric rail_fast ship container cable_car subway aircraft wheelchair scooter drone" speed="22.22" length="9.86" shape="506.00,3666.97 507.40,3669.45 507.87,3671.38 508.05,3673.45 508.57,3676.34"/>
    </edge>
    <edge id=":10279595643_3" function="internal">
        <lane id=":10279595643_3_0" index="0" disallow="tram rail_urban rail rail_electric rail_fast ship container cable_car subway aircraft wheelchair scooter drone" speed="3.65" length="1.34" shape="506.00,3666.97 506.02,3668.31"/>
    </edge>
    <edge id=":10279595643_4" function="internal">
        <lane id=":10279595643_4_0" index="0" disallow="tram rail_urban rail rail_electric rail_fast ship container cable_car subway aircraft wheelchair scooter drone" speed="3.65" length="3.33" shape="506.02,3668.31 506.03,3668.41 505.60,3669.19 504.71,3669.32 503.37,3668.80"/>
    </edge>
    <edge id=":1067781007_0" function="internal">
        <lane id=":1067781007_0_0" index="0" disallow="tram rail_urban rail rail_electric rail_fast ship container cable_car subway aircraft wheelchair scooter drone" speed="5.56" length="1.39" shape="2441.22,1318.82 2440.61,1318.69 2440.21,1318.55 2439.84,1318.34 2439.34,1317.98"/>
        <lane id=":1067781007_0_1" index="1" disallow="tram rail_urban rail rail_electric rail_fast ship container cable_car subway aircraft wheelchair scooter drone" speed="5.56" length="1.39" shape="2441.86,1315.68 2441.66,1315.64 2441.52,1315.59 2441.40,1315.52 2441.23,1315.41"/>
    </edge>
    <edge id=":1067781019_0" function="internal">
        <lane id=":1067781019_0_0" index="0" disallow="tram rail_urban rail rail_electric rail_fast ship container cable_car subway aircraft wheelchair scooter drone" speed="16.67" length="3.21" shape="2462.42,1329.64 2461.48,1329.48 2460.83,1329.40 2460.18,1329.35 2459.23,1329.32"/>
        <lane id=":1067781019_0_1" index="1" disallow="tram rail_urban rail rail_electric rail_fast ship container cable_car subway aircraft wheelchair scooter drone" speed="16.67" length="3.62" shape="2462.94,1326.48 2461.88,1326.31 2461.15,1326.21 2460.42,1326.16 2459.34,1326.12"/>
    </edge>
    <edge id=":1067781019_2" function="internal">
        <lane id=":1067781019_2_0" index="0" disallow="tram rail_urban rail rail_electric rail_fast ship container cable_car subway aircraft wheelchair scooter drone" speed="5.56" length="3.23" shape="2463.47,1323.32 2460.23,1322.72"/>
        <lane id=":1067781019_2_1" index="1" disallow="tram rail_urban rail rail_electric rail_fast ship container cable_car subway aircraft wheelchair scooter drone" speed="5.56" length="3.23" shape="2463.99,1320.17 2460.87,1319.59"/>
    </edge>
    <edge id=":1067781030_0" function="internal">
        <lane id=":1067781030_0_0" index="0" disallow="tram rail_urban rail rail_electric rail_fast ship container cable_car subway aircraft wheelchair scooter drone" speed="5.56" length="11.54" shape="2410.05,1302.33 2410.17,1299.09 2410.38,1296.81 2410.19,1294.62 2409.14,1291.64"/>
        <lane id=":1067781030_0_1" index="1" disallow="tram rail_urban rail rail_electric rail_fast ship container cable_car subway aircraft wheelchair scooter drone" speed="5.56" length="11.54" shape="2413.25,1302.28 2413.36,1298.65 2413.53,1296.11 2413.27,1293.66 2412.06,1290.33"/>
    </edge>
    <edge id=":1067781030_2" function="internal">
        <lane id=":1067781030_2_0" index="0" disallow="tram rail_urban rail rail_electric rail_fast ship container cable_car subway aircraft wheelchair scooter drone" speed="5.56" length="11.54" shape="2417.01,1300.67 2414.33,1298.25 2412.40,1296.62 2410.80,1294.76 2409.14,1291.64"/>
        <lane id=":1067781030_2_1" index="1" disallow="tram rail_urban rail rail_electric rail_fast ship container cable_car subway aircraft wheelchair scooter drone" speed="5.56" length="11.54" shape="2419.26,1298.39 2416.82,1296.22 2415.05,1294.78 2413.58,1293.14 2412.06,1290.33"/>
    </edge>
    <edge id=":10684915913_0" function="internal">
        <lane id=":10684915913_0_0" index="0" disallow="tram rail_urban rail rail_electric rail_fast ship container cable_car subway aircraft wheelchair scooter drone" speed="22.22" length="3.66" shape="3018.49,2950.60 3019.18,2954.19"/>
    </edge>
    <edge id=":10684915913_1" function="internal">
        <lane id=":10684915913_1_0" index="0" disallow="tram rail_urban rail rail_electric rail_fast ship container cable_car subway aircraft wheelchair scooter drone" speed="9.62" length="3.76" shape="3014.38,2951.60 3015.10,2952.45 3015.52,2953.10 3015.80,2953.82 3016.06,2954.90"/>
    </edge>
    <edge id=":107215079#0-AddedOnRampNode_0" function="internal">
        <lane id=":107215079#0-AddedOnRampNode_0_0" index="0" disallow="tram rail_urban rail rail_electric rail_fast ship container cable_car subway aircraft wheelchair scooter drone" speed="27.78" length="8.00" shape="3205.12,2867.82 3212.74,2865.38"/>
        <lane id=":107215079#0-AddedOnRampNode_0_1" index="1" disallow="tram rail_urban rail rail_electric rail_fast ship container cable_car subway aircraft wheelchair scooter drone" speed="27.78" length="8.00" shape="3206.10,2870.86 3213.72,2868.43"/>
        <lane id=":107215079#0-AddedOnRampNode_0_2" index="2" disallow="tram rail_urban rail rail_electric rail_fast ship container cable_car subway aircraft wheelchair scooter drone" speed="27.78" length="8.00" shape="3207.08,2873.91 3214.70,2871.48"/>
    </edge>
    <edge id=":1087824452_0" function="internal">
        <lane id=":1087824452_0_0" index="0" disallow="tram rail_urban rail rail_electric rail_fast ship container cable_car subway aircraft wheelchair scooter drone" speed="27.78" length="8.81" shape="760.13,2183.54 758.34,2185.30 757.65,2187.06 756.97,2188.82 755.18,2190.59"/>
        <lane id=":1087824452_0_1" index="1" disallow="tram rail_urban rail rail_electric rail_fast ship container cable_car subway aircraft wheelchair scooter drone" speed="27.78" length="8.81" shape="758.39,2180.86 756.60,2182.62 755.91,2184.38 755.22,2186.15 753.43,2187.92"/>
    </edge>
    <edge id=":10978687876_0" function="internal">
        <lane id=":10978687876_0_0" index="0" disallow="tram rail_urban rail rail_electric rail_fast ship container cable_car subway aircraft wheelchair scooter drone" speed="27.78" length="7.35" shape="1401.66,2561.16 1403.76,2562.04 1405.18,2562.69 1406.57,2563.40 1408.58,2564.50"/>
        <lane id=":10978687876_0_1" index="1" disallow="tram rail_urban rail rail_electric rail_fast ship container cable_car subway aircraft wheelchair scooter drone" speed="27.78" length="7.35" shape="1400.42,2564.11 1402.43,2564.96 1403.79,2565.57 1405.12,2566.26 1407.03,2567.30"/>
        <lane id=":10978687876_0_2" index="2" disallow="tram rail_urban rail rail_electric rail_fast ship container cable_car subway aircraft wheelchair scooter drone" speed="27.78" length="7.35" shape="1399.19,2567.06 1401.10,2567.87 1402.40,2568.46 1403.67,2569.11 1405.49,2570.11"/>
    </edge>
    <edge id=":10978687886_0" function="internal">
        <lane id=":10978687886_0_0" index="0" disallow="tram rail_urban rail rail_electric rail_fast ship container cable_car subway aircraft wheelchair scooter drone" speed="8.30" length="11.24" shape="1355.20,2514.29 1353.16,2514.66 1351.22,2516.03 1349.38,2518.40 1347.64,2521.77"/>
        <lane id=":10978687886_0_1" index="1" disallow="tram rail_urban rail rail_electric rail_fast ship container cable_car subway aircraft wheelchair scooter drone" speed="8.91" length="13.07" shape="1355.20,2514.29 1351.70,2514.50 1348.79,2515.61 1346.46,2517.60 1344.71,2520.49"/>
        <lane id=":10978687886_0_2" index="2" disallow="tram rail_urban rail rail_electric rail_fast ship container cable_car subway aircraft wheelchair scooter drone" speed="9.56" length="15.17" shape="1355.20,2514.29 1350.25,2514.34 1346.36,2515.18 1343.53,2516.80 1341.78,2519.21"/>
    </edge>
    <edge id=":10978687886_3" function="internal">
        <lane id=":10978687886_3_0" index="0" disallow="tram rail_urban rail rail_electric rail_fast ship container cable_car subway aircraft wheelchair scooter drone" speed="8.29" length="13.61" shape="1354.31,2511.13 1348.81,2512.59 1344.77,2513.39 1342.20,2513.53 1341.08,2513.01"/>
        <lane id=":10978687886_3_1" index="1" disallow="tram rail_urban rail rail_electric rail_fast ship container cable_car subway aircraft wheelchair scooter drone" speed="7.42" length="10.73" shape="1354.31,2511.13 1350.16,2512.17 1347.06,2512.61 1345.00,2512.45 1344.00,2511.69"/>
        <lane id=":10978687886_3_2" index="2" disallow="tram rail_urban rail rail_electric rail_fast ship container cable_car subway aircraft wheelchair scooter drone" speed="6.49" length="7.98" shape="1354.31,2511.13 1351.51,2511.75 1349.34,2511.83 1347.81,2511.37 1346.92,2510.37"/>
        <lane id=":10978687886_3_3" index="3" disallow="tram rail_urban rail rail_electric rail_fast ship container cable_car subway aircraft wheelchair scooter drone" speed="5.50" length="5.46" shape="1354.31,2511.13 1352.85,2511.34 1351.62,2511.06 1350.62,2510.30 1349.83,2509.05"/>
    </edge>
    <edge id=":11098474896_0" function="internal">
        <lane id=":11098474896_0_0" index="0" disallow="tram rail_urban rail rail_electric rail_fast ship container cable_car subway aircraft wheelchair scooter drone" speed="6.54" length="8.09" shape="726.63,2867.75 725.11,2865.89 723.47,2864.80 721.71,2864.50 719.84,2864.98"/>
    </edge>
    <edge id=":11098474896_1" function="internal">
        <lane id=":11098474896_1_0" index="0" disallow="tram rail_urban rail rail_electric rail_fast ship container cable_car subway aircraft wheelchair scooter drone" speed="22.22" length="14.39" shape="726.63,2867.75 719.05,2855.52"/>
    </edge>
    <edge id=":11098474896_2" function="internal">
        <lane id=":11098474896_2_0" index="0" disallow="tram rail_urban rail rail_electric rail_fast ship container cable_car subway aircraft wheelchair scooter drone" speed="5.81" length="7.58" shape="718.52,2862.07 719.86,2861.07 720.40,2859.64 720.13,2857.79 719.05,2855.52"/>
    </edge>
    <edge id=":11169217411_0" function="internal">
        <lane id=":11169217411_0_0" index="0" disallow="tram rail_urban rail rail_electric rail_fast ship container cable_car subway aircraft wheelchair scooter drone" speed="27.78" length="8.11" shape="3557.94,2744.97 3555.75,2745.99 3554.40,2747.03 3553.04,2748.03 3550.82,2748.97"/>
        <lane id=":11169217411_0_1" index="1" disallow="tram rail_urban rail rail_electric rail_fast ship container cable_car subway aircraft wheelchair scooter drone" speed="27.78" length="8.11" shape="3556.89,2741.94 3554.73,2742.96 3553.41,2743.99 3552.08,2744.98 3549.89,2745.90"/>
        <lane id=":11169217411_0_2" index="2" disallow="tram rail_urban rail rail_electric rail_fast ship container cable_car subway aircraft wheelchair scooter drone" speed="27.78" length="8.11" shape="3556.89,2741.94 3554.60,2742.48 3552.95,2742.45 3551.29,2742.40 3548.97,2742.84"/>
    </edge>
    <edge id=":11342970531_0" function="internal">
        <lane id=":11342970531_0_0" index="0" disallow="tram rail_urban rail rail_electric rail_fast ship container cable_car subway aircraft wheelchair scooter drone" speed="9.12" length="12.97" shape="2417.27,3308.94 2420.06,3307.46 2422.11,3305.27 2423.44,3302.38 2424.03,3298.79"/>
    </edge>
    <edge id=":11342970531_1" function="internal">
        <lane id=":11342970531_1_0" index="0" disallow="tram rail_urban rail rail_electric rail_fast ship container cable_car subway aircraft wheelchair scooter drone" speed="25.00" length="18.79" shape="2417.27,3308.94 2434.90,3302.46"/>
        <lane id=":11342970531_1_1" index="1" disallow="tram rail_urban rail rail_electric rail_fast ship container cable_car subway aircraft wheelchair scooter drone" speed="25.00" length="18.79" shape="2418.36,3311.95 2436.02,3305.46"/>
    </edge>
    <edge id=":11342970531_3" function="internal">
        <lane id=":11342970531_3_0" index="0" disallow="tram rail_urban rail rail_electric rail_fast ship container cable_car subway aircraft wheelchair scooter drone" speed="27.78" length="16.74" shape="2422.72,3315.35 2424.03,3298.79"/>
        <lane id=":11342970531_3_1" index="1" disallow="tram rail_urban rail rail_electric rail_fast ship container cable_car subway aircraft wheelchair scooter drone" speed="27.78" length="16.74" shape="2425.90,3315.67 2427.22,3298.98"/>
        <lane id=":11342970531_3_2" index="2" disallow="tram rail_urban rail rail_electric rail_fast ship container cable_car subway aircraft wheelchair scooter drone" speed="27.78" length="16.74" shape="2429.08,3315.99 2430.42,3299.16"/>
    </edge>
    <edge id=":11342970531_6" function="internal">
        <lane id=":11342970531_6_0" index="0" disallow="tram rail_urban rail rail_electric rail_fast ship container cable_car subway aircraft wheelchair scooter drone" speed="9.51" length="13.31" shape="2429.08,3315.99 2429.83,3312.24 2431.23,3309.23 2433.30,3306.97 2436.02,3305.46"/>
    </edge>
    <edge id=":11342970548_0" function="internal">
        <lane id=":11342970548_0_0" index="0" disallow="tram rail_urban rail rail_electric rail_fast ship container cable_car subway aircraft wheelchair scooter drone" speed="27.78" length="7.99" shape="2405.43,3467.99 2407.05,3469.64 2407.92,3471.04 2408.81,3472.40 2410.51,3473.95"/>
        <lane id=":11342970548_0_1" index="1" disallow="tram rail_urban rail rail_electric rail_fast ship container cable_car subway aircraft wheelchair scooter drone" speed="27.78" length="7.99" shape="2403.39,3470.46 2405.07,3472.15 2405.96,3473.57 2406.88,3474.95 2408.64,3476.54"/>
    </edge>
    <edge id=":11425338077_0" function="internal">
        <lane id=":11425338077_0_0" index="0" disallow="tram rail_urban rail rail_electric rail_fast ship container cable_car subway aircraft wheelchair scooter drone" speed="18.05" length="3.37" shape="2197.17,1594.99 2197.44,1594.02 2197.58,1593.35 2197.64,1592.67 2197.68,1591.67"/>
        <lane id=":11425338077_0_1" index="1" disallow="tram rail_urban rail rail_electric rail_fast ship container cable_car subway aircraft wheelchair scooter drone" speed="18.05" length="4.14" shape="2200.26,1595.84 2200.58,1594.66 2200.75,1593.84 2200.83,1593.00 2200.88,1591.77"/>
    </edge>
    <edge id=":11425338077_2" function="internal">
        <lane id=":11425338077_2_0" index="0" disallow="tram rail_urban rail rail_electric rail_fast ship container cable_car subway aircraft wheelchair scooter drone" speed="13.89" length="4.36" shape="2203.34,1596.70 2203.67,1595.50 2203.87,1594.66 2204.04,1593.83 2204.26,1592.60"/>
        <lane id=":11425338077_2_1" index="1" disallow="tram rail_urban rail rail_electric rail_fast ship container cable_car subway aircraft wheelchair scooter drone" speed="13.89" length="4.36" shape="2206.42,1597.56 2206.78,1596.27 2206.99,1595.38 2207.17,1594.48 2207.41,1593.16"/>
    </edge>
    <edge id=":1148155464-AddedOnRampNode_0" function="internal">
        <lane id=":1148155464-AddedOnRampNode_0_0" index="0" disallow="tram rail_urban rail rail_electric rail_fast ship container cable_car subway aircraft wheelchair scooter drone" speed="22.22" length="8.67" shape="2207.05,2090.43 2215.09,2087.17"/>
    </edge>
    <edge id=":11496183647_0" function="internal">
        <lane id=":11496183647_0_0" index="0" disallow="tram rail_urban rail rail_electric rail_fast ship container cable_car subway aircraft wheelchair scooter drone" speed="6.64" length="9.90" shape="2793.85,1672.63 2792.78,1674.90 2792.84,1677.02 2794.03,1679.00 2796.35,1680.83"/>
    </edge>
    <edge id=":11496183647_1" function="internal">
        <lane id=":11496183647_1_0" index="0" disallow="tram rail_urban rail rail_electric rail_fast ship container cable_car subway aircraft wheelchair scooter drone" speed="11.11" length="14.15" shape="2784.61,1673.23 2796.35,1680.83"/>
        <lane id=":11496183647_1_1" index="1" disallow="tram rail_urban rail rail_electric rail_fast ship container cable_car subway aircraft wheelchair scooter drone" speed="11.11" length="14.15" shape="2782.81,1675.87 2794.69,1683.56"/>
        <lane id=":11496183647_1_2" index="2" disallow="tram rail_urban rail rail_electric rail_fast ship container cable_car subway aircraft wheelchair scooter drone" speed="11.11" length="14.15" shape="2781.00,1678.51 2793.02,1686.29"/>
    </edge>
    <edge id=":11496183647_4" function="internal">
        <lane id=":11496183647_4_0" index="0" disallow="tram rail_urban rail rail_electric rail_fast ship container cable_car subway aircraft wheelchair scooter drone" speed="7.94" length="11.87" shape="2782.47,1686.30 2784.81,1683.27 2787.63,1681.80 2790.92,1681.90 2794.69,1683.56"/>