<?xml version='1.0' encoding='utf-8'?>
<routes xmlns:xsi="http://www.w3.org/2001/XMLSchema-instance" xsi:noNamespaceSchemaLocation="http://sumo.dlr.de/xsd/routes_file.xsd"><vType id="passenger" vClass="passenger" /><trip id="0" type="passenger" depart="0.00" from="E39M" to="E57L" />
    <trip id="1" type="passenger" depart="15.00" from="E56L" to="E46XL" />
    <trip id="2" type="passenger" depart="30.00" from="E33SS" to="E57L" />
    <trip id="3" type="passenger" depart="45.00" from="E29M" to="E50XXL" />
    <trip id="4" type="passenger" depart="60.00" from="E26XL" to="E50XXL" />
    <trip id="5" type="passenger" depart="75.00" from="E53L" to="E50XXL" />
    <trip id="6" type="passenger" depart="90.00" from="E27M" to="E50XXL" />
    <trip id="7" type="passenger" depart="105.00" from="E54L" to="E50XXL" />
    <trip id="8" type="passenger" depart="120.00" from="E4S" to="E57L" />
    <trip id="9" type="passenger" depart="135.00" from="E7S" to="E46XL" />
    <trip id="10" type="passenger" depart="150.00" from="E26XL" to="E57L" />
    <trip id="11" type="passenger" depart="165.00" from="E39M" to="E50XXL" />
    <trip id="12" type="passenger" depart="180.00" from="E38M" to="E50XXL" />
    <trip id="13" type="passenger" depart="195.00" from="E24M" to="E46XL" />
    <trip id="14" type="passenger" depart="210.00" from="E53L" to="E57L" />
    <trip id="15" type="passenger" depart="225.00" from="E31M" to="E50XXL" />
    <trip id="16" type="passenger" depart="240.00" from="E53L" to="E50XXL" />
    <trip id="17" type="passenger" depart="255.00" from="E22M" to="E47XL" />
    <trip id="18" type="passenger" depart="270.00" from="E5M" to="E57L" />
    <trip id="19" type="passenger" depart="285.00" from="E9S" to="E47XL" />
    <trip id="20" type="passenger" depart="300.00" from="E53L" to="E50XXL" />
    <trip id="21" type="passenger" depart="315.00" from="E53L" to="E57L" />
    <trip id="22" type="passenger" depart="330.00" from="E26XL" to="E50XXL" />
    <trip id="23" type="passenger" depart="345.00" from="E26XL" to="E46XL" />
    <trip id="24" type="passenger" depart="360.00" from="E54L" to="E50XXL" />
    <trip id="25" type="passenger" depart="375.00" from="E32L" to="E47XL" />
    <trip id="26" type="passenger" depart="390.00" from="E9S" to="E46XL" />
    <trip id="27" type="passenger" depart="405.00" from="E30S" to="E46XL" />
    <trip id="28" type="passenger" depart="420.00" from="E16M" to="E46XL" />
    <trip id="29" type="passenger" depart="435.00" from="E39M" to="E57L" />
    <trip id="30" type="passenger" depart="450.00" from="E48S" to="E47XL" />
    <trip id="31" type="passenger" depart="465.00" from="E29M" to="E46XL" />
    <trip id="32" type="passenger" depart="480.00" from="E56L" to="E46XL" />
    <trip id="33" type="passenger" depart="495.00" from="E21M" to="E46XL" />
    <trip id="34" type="passenger" depart="510.00" from="E56L" to="E47XL" />
    <trip id="35" type="passenger" depart="525.00" from="E29M" to="E57L" />
    <trip id="36" type="passenger" depart="540.00" from="E26XL" to="E57L" />
    <trip id="37" type="passenger" depart="555.00" from="E7S" to="E47XL" />
    <trip id="38" type="passenger" depart="570.00" from="E29M" to="E47XL" />
    <trip id="39" type="passenger" depart="585.00" from="E17M" to="E46XL" />
    <trip id="40" type="passenger" depart="600.00" from="E34SS" to="E46XL" />
    <trip id="41" type="passenger" depart="615.00" from="E31M" to="E50XXL" />
    <trip id="42" type="passenger" depart="630.00" from="E30S" to="E47XL" />
    <trip id="43" type="passenger" depart="645.00" from="E27M" to="E50XXL" />
    <trip id="44" type="passenger" depart="660.00" from="E53L" to="E50XXL" />
    <trip id="45" type="passenger" depart="675.00" from="E15L" to="E47XL" />
    <trip id="46" type="passenger" depart="690.00" from="E12SS" to="E47XL" />
    <trip id="47" type="passenger" depart="705.00" from="E21M" to="E47XL" />
    <trip id="48" type="passenger" depart="720.00" from="E24M" to="E46XL" />
    <trip id="49" type="passenger" depart="735.00" from="E3S" to="E57L" />
    <trip id="50" type="passenger" depart="750.00" from="E32L" to="E50XXL" />
    <trip id="51" type="passenger" depart="765.00" from="E39M" to="E57L" />
    <trip id="52" type="passenger" depart="780.00" from="E5M" to="E57L" />
    <trip id="53" type="passenger" depart="795.00" from="E24M" to="E46XL" />
    <trip id="54" type="passenger" depart="810.00" from="E48S" to="E47XL" />
    <trip id="55" type="passenger" depart="825.00" from="E19S" to="E47XL" />
    <trip id="56" type="passenger" depart="840.00" from="E32L" to="E46XL" />
    <trip id="57" type="passenger" depart="855.00" from="E56L" to="E46XL" />
    <trip id="58" type="passenger" depart="870.00" from="E22M" to="E46XL" />
    <trip id="59" type="passenger" depart="885.00" from="E27M" to="E57L" />
    <trip id="60" type="passenger" depart="900.00" from="E16M" to="E46XL" />
    <trip id="61" type="passenger" depart="915.00" from="E54L" to="E57L" />
    <trip id="62" type="passenger" depart="930.00" from="E30S" to="E46XL" />
    <trip id="63" type="passenger" depart="945.00" from="E17M" to="E47XL" />
    <trip id="64" type="passenger" depart="960.00" from="E20S" to="E46XL" />
    <trip id="65" type="passenger" depart="975.00" from="E42SS" to="E57L" />
    <trip id="66" type="passenger" depart="990.00" from="E3S" to="E57L" />
    <trip id="67" type="passenger" depart="1005.00" from="E39M" to="E57L" />
    <trip id="68" type="passenger" depart="1020.00" from="E56L" to="E47XL" />
    <trip id="69" type="passenger" depart="1035.00" from="-E49M" to="E47XL" />
    <trip id="70" type="passenger" depart="1050.00" from="E55L" to="E47XL" />
    <trip id="71" type="passenger" depart="1065.00" from="E21M" to="E46XL" />
    <trip id="72" type="passenger" depart="1080.00" from="E33SS" to="E46XL" />
    <trip id="73" type="passenger" depart="1095.00" from="E9S" to="E46XL" />
    <trip id="74" type="passenger" depart="1110.00" from="E28S" to="E57L" />
    <trip id="75" type="passenger" depart="1125.00" from="E26XL" to="E47XL" />
    <trip id="76" type="passenger" depart="1140.00" from="E42SS" to="E57L" />
    <trip id="77" type="passenger" depart="1155.00" from="E3S" to="E57L" />
    <trip id="78" type="passenger" depart="1170.00" from="E24M" to="E47XL" />
    <trip id="79" type="passenger" depart="1185.00" from="E9S" to="E46XL" />
    <trip id="80" type="passenger" depart="1200.00" from="E13XL" to="E46XL" />
    <trip id="81" type="passenger" depart="1215.00" from="E38M" to="E57L" />
    <trip id="82" type="passenger" depart="1230.00" from="E30S" to="E46XL" />
    <trip id="83" type="passenger" depart="1245.00" from="E26XL" to="E46XL" />
    <trip id="84" type="passenger" depart="1260.00" from="E31M" to="E46XL" />
    <trip id="85" type="passenger" depart="1275.00" from="E9S" to="E46XL" />
    <trip id="86" type="passenger" depart="1290.00" from="E38M" to="E50XXL" />
    <trip id="87" type="passenger" depart="1305.00" from="E37M" to="E50XXL" />
    <trip id="88" type="passenger" depart="1320.00" from="E13XL" to="E46XL" />
    <trip id="89" type="passenger" depart="1335.00" from="E37M" to="E57L" />
    <trip id="90" type="passenger" depart="1350.00" from="E29M" to="E57L" />
    <trip id="91" type="passenger" depart="1365.00" from="E16M" to="E47XL" />
    <trip id="92" type="passenger" depart="1380.00" from="E15L" to="E47XL" />
    <trip id="93" type="passenger" depart="1395.00" from="E5M" to="E57L" />
    <trip id="94" type="passenger" depart="1410.00" from="E54L" to="E50XXL" />
    <trip id="95" type="passenger" depart="1425.00" from="E11SS" to="E47XL" />
    <trip id="96" type="passenger" depart="1440.00" from="E7S" to="E47XL" />
    <trip id="97" type="passenger" depart="1455.00" from="E18S" to="E47XL" />
    <trip id="98" type="passenger" depart="1470.00" from="E19S" to="E46XL" />
    <trip id="99" type="passenger" depart="1485.00" from="E24M" to="E46XL" />
    <trip id="100" type="passenger" depart="1500.00" from="E26XL" to="E47XL" />
    <trip id="101" type="passenger" depart="1515.00" from="E29M" to="E46XL" />
    <trip id="102" type="passenger" depart="1530.00" from="E28S" to="E57L" />
    <trip id="103" type="passenger" depart="1545.00" from="E36M" to="E57L" />
    <trip id="104" type="passenger" depart="1560.00" from="E26XL" to="E46XL" />
    <trip id="105" type="passenger" depart="1575.00" from="E33SS" to="E57L" />
    <trip id="106" type="passenger" depart="1590.00" from="E27M" to="E57L" />
    <trip id="107" type="passenger" depart="1605.00" from="E52S" to="E57L" />
    <trip id="108" type="passenger" depart="1620.00" from="E54L" to="E57L" />
    <trip id="109" type="passenger" depart="1635.00" from="E53L" to="E50XXL" />
    <trip id="110" type="passenger" depart="1650.00" from="E32L" to="E57L" />
    <trip id="111" type="passenger" depart="1665.00" from="E29M" to="E47XL" />
    <trip id="112" type="passenger" depart="1680.00" from="E36M" to="E50XXL" />
    <trip id="113" type="passenger" depart="1695.00" from="E12SS" to="E46XL" />
    <trip id="114" type="passenger" depart="1710.00" from="E26XL" to="E50XXL" />
    <trip id="115" type="passenger" depart="1725.00" from="E28S" to="E46XL" />
    <trip id="116" type="passenger" depart="1740.00" from="E42SS" to="E57L" />
    <trip id="117" type="passenger" depart="1755.00" from="E18S" to="E47XL" />
    <trip id="118" type="passenger" depart="1770.00" from="-E49M" to="E46XL" />
    <trip id="119" type="passenger" depart="1785.00" from="E14SS" to="E47XL" />
    <trip id="120" type="passenger" depart="1800.00" from="E22M" to="E46XL" />
    <trip id="121" type="passenger" depart="1815.00" from="E19S" to="E47XL" />
    <trip id="122" type="passenger" depart="1830.00" from="E31M" to="E47XL" />
    <trip id="123" type="passenger" depart="1845.00" from="E26XL" to="E46XL" />
    <trip id="124" type="passenger" depart="1860.00" from="E28S" to="E47XL" />
    <trip id="125" type="passenger" depart="1875.00" from="E53L" to="E57L" />
    <trip id="126" type="passenger" depart="1890.00" from="E32L" to="E50XXL" />
    <trip id="127" type="passenger" depart="1905.00" from="E29M" to="E47XL" />
    <trip id="128" type="passenger" depart="1920.00" from="E30S" to="E57L" />
    <trip id="129" type="passenger" depart="1935.00" from="E53L" to="E50XXL" />
    <trip id="130" type="passenger" depart="1950.00" from="E32L" to="E50XXL" />
    <trip id="131" type="passenger" depart="1965.00" from="E56L" to="E47XL" />
    <trip id="132" type="passenger" depart="1980.00" from="E32L" to="E47XL" />
    <trip id="133" type="passenger" depart="1995.00" from="E38M" to="E50XXL" />
    <trip id="134" type="passenger" depart="2010.00" from="E16M" to="E47XL" />
    <trip id="135" type="passenger" depart="2025.00" from="E17M" to="E47XL" />
    <trip id="136" type="passenger" depart="2040.00" from="E27M" to="E57L" />
    <trip id="137" type="passenger" depart="2055.00" from="E53L" to="E50XXL" />
    <trip id="138" type="passenger" depart="2070.00" from="E15L" to="E47XL" />
    <trip id="139" type="passenger" depart="2085.00" from="E18S" to="E46XL" />
    <trip id="140" type="passenger" depart="2100.00" from="E41SS" to="E57L" />
    <trip id="141" type="passenger" depart="2115.00" from="E13XL" to="E46XL" />
    <trip id="142" type="passenger" depart="2130.00" from="E37M" to="E50XXL" />
    <trip id="143" type="passenger" depart="2145.00" from="E31M" to="E47XL" />
    <trip id="144" type="passenger" depart="2160.00" from="E28S" to="E50XXL" />
    <trip id="145" type="passenger" depart="2175.00" from="E24M" to="E46XL" />
    <trip id="146" type="passenger" depart="2190.00" from="E29M" to="E46XL" />
    <trip id="147" type="passenger" depart="2205.00" from="E24M" to="E46XL" />
    <trip id="148" type="passenger" depart="2220.00" from="E26XL" to="E50XXL" />
    <trip id="149" type="passenger" depart="2235.00" from="E13XL" to="E46XL" />
    <trip id="150" type="passenger" depart="2250.00" from="E53L" to="E57L" />
    <trip id="151" type="passenger" depart="2265.00" from="E31M" to="E47XL" />
    <trip id="152" type="passenger" depart="2280.00" from="E26XL" to="E46XL" />
    <trip id="153" type="passenger" depart="2295.00" from="E26XL" to="E57L" />
    <trip id="154" type="passenger" depart="2310.00" from="E7S" to="E47XL" />
    <trip id="155" type="passenger" depart="2325.00" from="E19S" to="E47XL" />
    <trip id="156" type="passenger" depart="2340.00" from="E31M" to="E46XL" />
    <trip id="157" type="passenger" depart="2355.00" from="E30S" to="E46XL" />
    <trip id="158" type="passenger" depart="2370.00" from="E19S" to="E47XL" />
    <trip id="159" type="passenger" depart="2385.00" from="E48S" to="E47XL" />
    <trip id="160" type="passenger" depart="2400.00" from="E13XL" to="E46XL" />
    <trip id="161" type="passenger" depart="2415.00" from="E16M" to="E47XL" />
    <trip id="162" type="passenger" depart="2430.00" from="E30S" to="E46XL" />
    <trip id="163" type="passenger" depart="2445.00" from="E26XL" to="E57L" />
    <trip id="164" type="passenger" depart="2460.00" from="E42SS" to="E57L" />
    <trip id="165" type="passenger" depart="2475.00" from="E32L" to="E46XL" />
    <trip id="166" type="passenger" depart="2490.00" from="E11SS" to="E47XL" />
    <trip id="167" type="passenger" depart="2505.00" from="E56L" to="E47XL" />
    <trip id="168" type="passenger" depart="2520.00" from="E26XL" to="E47XL" />
    <trip id="169" type="passenger" depart="2535.00" from="E31M" to="E46XL" />
    <trip id="170" type="passenger" depart="2550.00" from="E15L" to="E47XL" />
    <trip id="171" type="passenger" depart="2565.00" from="E13XL" to="E46XL" />
    <trip id="172" type="passenger" depart="2580.00" from="E26XL" to="E46XL" />
    <trip id="173" type="passenger" depart="2595.00" from="E20S" to="E47XL" />
    <trip id="174" type="passenger" depart="2610.00" from="E17M" to="E46XL" />
    <trip id="175" type="passenger" depart="2625.00" from="E21M" to="E46XL" />
    <trip id="176" type="passenger" depart="2640.00" from="E37M" to="E50XXL" />
    <trip id="177" type="passenger" depart="2655.00" from="E29M" to="E46XL" />
    <trip id="178" type="passenger" depart="2670.00" from="E26XL" to="E47XL" />
    <trip id="179" type="passenger" depart="2685.00" from="E31M" to="E46XL" />
    <trip id="180" type="passenger" depart="2700.00" from="E32L" to="E47XL" />
    <trip id="181" type="passenger" depart="2715.00" from="E37M" to="E57L" />
    <trip id="182" type="passenger" depart="2730.00" from="E18S" to="E47XL" />
    <trip id="183" type="passenger" depart="2745.00" from="E28S" to="E50XXL" />
    <trip id="184" type="passenger" depart="2760.00" from="E53L" to="E57L" />
    <trip id="185" type="passenger" depart="2775.00" from="E34SS" to="E57L" />
    <trip id="186" type="passenger" depart="2790.00" from="E29M" to="E50XXL" />
    <trip id="187" type="passenger" depart="2805.00" from="E38M" to="E57L" />
    <trip id="188" type="passenger" depart="2820.00" from="E32L" to="E50XXL" />
    <trip id="189" type="passenger" depart="2835.00" from="E32L" to="E50XXL" />
    <trip id="190" type="passenger" depart="2850.00" from="E31M" to="E50XXL" />
    <trip id="191" type="passenger" depart="2865.00" from="E36M" to="E50XXL" />
    <trip id="192" type="passenger" depart="2880.00" from="E38M" to="E50XXL" />
    <trip id="193" type="passenger" depart="2895.00" from="E38M" to="E50XXL" />
    <trip id="194" type="passenger" depart="2910.00" from="E26XL" to="E46XL" />
    <trip id="195" type="passenger" depart="2925.00" from="E36M" to="E57L" />
    <trip id="196" type="passenger" depart="2940.00" from="E40S" to="E57L" />
    <trip id="197" type="passenger" depart="2955.00" from="E19S" to="E47XL" />
    <trip id="198" type="passenger" depart="2970.00" from="E2S" to="E57L" />
    <trip id="199" type="passenger" depart="2985.00" from="E26XL" to="E50XXL" />
    <trip id="200" type="passenger" depart="3000.00" from="E26XL" to="E50XXL" />
    <trip id="201" type="passenger" depart="3015.00" from="E20S" to="E46XL" />
    <trip id="202" type="passenger" depart="3030.00" from="E13XL" to="E47XL" />
    <trip id="203" type="passenger" depart="3045.00" from="E20S" to="E46XL" />
    <trip id="204" type="passenger" depart="3060.00" from="E29M" to="E57L" />
    <trip id="205" type="passenger" depart="3075.00" from="E22M" to="E46XL" />
    <trip id="206" type="passenger" depart="3090.00" from="E12SS" to="E46XL" />
    <trip id="207" type="passenger" depart="3105.00" from="E28S" to="E47XL" />
    <trip id="208" type="passenger" depart="3120.00" from="E3S" to="E57L" />
    <trip id="209" type="passenger" depart="3135.00" from="E55L" to="E47XL" />
    <trip id="210" type="passenger" depart="3150.00" from="E26XL" to="E50XXL" />
    <trip id="211" type="passenger" depart="3165.00" from="E56L" to="E47XL" />
    <trip id="212" type="passenger" depart="3180.00" from="E32L" to="E57L" />
    <trip id="213" type="passenger" depart="3195.00" from="E29M" to="E46XL" />
    <trip id="214" type="passenger" depart="3210.00" from="E21M" to="E47XL" />
    <trip id="215" type="passenger" depart="3225.00" from="E21M" to="E46XL" />
    <trip id="216" type="passenger" depart="3240.00" from="E39M" to="E57L" />
    <trip id="217" type="passenger" depart="3255.00" from="E17M" to="E47XL" />
    <trip id="218" type="passenger" depart="3270.00" from="E39M" to="E57L" />
    <trip id="219" type="passenger" depart="3285.00" from="E21M" to="E46XL" />
    <trip id="220" type="passenger" depart="3300.00" from="E48S" to="E46XL" />
    <trip id="221" type="passenger" depart="3315.00" from="E32L" to="E57L" />
    <trip id="222" type="passenger" depart="3330.00" from="E31M" to="E57L" />
    <trip id="223" type="passenger" depart="3345.00" from="E14SS" to="E47XL" />
    <trip id="224" type="passenger" depart="3360.00" from="E40S" to="E57L" />
    <trip id="225" type="passenger" depart="3375.00" from="E26XL" to="E57L" />
    <trip id="226" type="passenger" depart="3390.00" from="E17M" to="E47XL" />
    <trip id="227" type="passenger" depart="3405.00" from="E53L" to="E50XXL" />
    <trip id="228" type="passenger" depart="3420.00" from="E54L" to="E57L" />
    <trip id="229" type="passenger" depart="3435.00" from="E16M" to="E46XL" />
    <trip id="230" type="passenger" depart="3450.00" from="E54L" to="E50XXL" />
    <trip id="231" type="passenger" depart="3465.00" from="E32L" to="E50XXL" />
    <trip id="232" type="passenger" depart="3480.00" from="E53L" to="E57L" />
    <trip id="233" type="passenger" depart="3495.00" from="E22M" to="E46XL" />
    <trip id="234" type="passenger" depart="3510.00" from="E32L" to="E57L" />
    <trip id="235" type="passenger" depart="3525.00" from="E8S" to="E46XL" />
    <trip id="236" type="passenger" depart="3540.00" from="E37M" to="E50XXL" />
    <trip id="237" type="passenger" depart="3555.00" from="E16M" to="E47XL" />
    <trip id="238" type="passenger" depart="3570.00" from="E7S" to="E46XL" />
    <trip id="239" type="passenger" depart="3585.00" from="E37M" to="E50XXL" />
<trip id="240" type="passenger" depart="3600.00" from="E35M" to="E50XXL" />
    <trip id="241" type="passenger" depart="3615.00" from="E53L" to="E50XXL" />
    <trip id="242" type="passenger" depart="3630.00" from="E44SS" to="E57L" />
    <trip id="243" type="passenger" depart="3645.00" from="E41SS" to="E57L" />
    <trip id="244" type="passenger" depart="3660.00" from="E31M" to="E46XL" />
    <trip id="245" type="passenger" depart="3675.00" from="E34SS" to="E57L" />
    <trip id="246" type="passenger" depart="3690.00" from="E20S" to="E47XL" />
    <trip id="247" type="passenger" depart="3705.00" from="E13XL" to="E46XL" />
    <trip id="248" type="passenger" depart="3720.00" from="E15L" to="E47XL" />
    <trip id="249" type="passenger" depart="3735.00" from="E32L" to="E57L" />
    <trip id="250" type="passenger" depart="3750.00" from="E26XL" to="E50XXL" />
    <trip id="251" type="passenger" depart="3765.00" from="E55L" to="E46XL" />
    <trip id="252" type="passenger" depart="3780.00" from="E53L" to="E50XXL" />
    <trip id="253" type="passenger" depart="3795.00" from="E26XL" to="E47XL" />
    <trip id="254" type="passenger" depart="3810.00" from="E26XL" to="E46XL" />
    <trip id="255" type="passenger" depart="3825.00" from="E36M" to="E57L" />
    <trip id="256" type="passenger" depart="3840.00" from="E35M" to="E57L" />
    <trip id="257" type="passenger" depart="3855.00" from="E35M" to="E50XXL" />
    <trip id="258" type="passenger" depart="3870.00" from="E29M" to="E46XL" />
    <trip id="259" type="passenger" depart="3885.00" from="E24M" to="E47XL" />
    <trip id="260" type="passenger" depart="3900.00" from="E18S" to="E47XL" />
    <trip id="261" type="passenger" depart="3915.00" from="E39M" to="E57L" />
    <trip id="262" type="passenger" depart="3930.00" from="E32L" to="E50XXL" />
    <trip id="263" type="passenger" depart="3945.00" from="E35M" to="E50XXL" />
    <trip id="264" type="passenger" depart="3960.00" from="E41SS" to="E57L" />
    <trip id="265" type="passenger" depart="3975.00" from="E36M" to="E57L" />
    <trip id="266" type="passenger" depart="3990.00" from="E15L" to="E47XL" />
    <trip id="267" type="passenger" depart="4005.00" from="E39M" to="E57L" />
    <trip id="268" type="passenger" depart="4020.00" from="E32L" to="E46XL" />
    <trip id="269" type="passenger" depart="4035.00" from="E3S" to="E57L" />
    <trip id="270" type="passenger" depart="4050.00" from="E29M" to="E57L" />
    <trip id="271" type="passenger" depart="4065.00" from="E32L" to="E46XL" />
    <trip id="272" type="passenger" depart="4080.00" from="E55L" to="E47XL" />
    <trip id="273" type="passenger" depart="4095.00" from="E55L" to="E47XL" />
    <trip id="274" type="passenger" depart="4110.00" from="E16M" to="E46XL" />
    <trip id="275" type="passenger" depart="4125.00" from="E36M" to="E57L" />
    <trip id="276" type="passenger" depart="4140.00" from="E26XL" to="E46XL" />
    <trip id="277" type="passenger" depart="4155.00" from="E53L" to="E57L" />
    <trip id="278" type="passenger" depart="4170.00" from="E30S" to="E50XXL" />
    <trip id="279" type="passenger" depart="4185.00" from="E56L" to="E47XL" />
    <trip id="280" type="passenger" depart="4200.00" from="E6S" to="E57L" />
    <trip id="281" type="passenger" depart="4215.00" from="E17M" to="E46XL" />
    <trip id="282" type="passenger" depart="4230.00" from="E35M" to="E50XXL" />
    <trip id="283" type="passenger" depart="4245.00" from="-E49M" to="E46XL" />
    <trip id="284" type="passenger" depart="4260.00" from="E8S" to="E46XL" />
    <trip id="285" type="passenger" depart="4275.00" from="E4S" to="E57L" />
    <trip id="286" type="passenger" depart="4290.00" from="E13XL" to="E46XL" />
    <trip id="287" type="passenger" depart="4305.00" from="E26XL" to="E47XL" />
    <trip id="288" type="passenger" depart="4320.00" from="E53L" to="E57L" />
    <trip id="289" type="passenger" depart="4335.00" from="E37M" to="E50XXL" />
    <trip id="290" type="passenger" depart="4350.00" from="E28S" to="E47XL" />
    <trip id="291" type="passenger" depart="4365.00" from="E29M" to="E57L" />
    <trip id="292" type="passenger" depart="4380.00" from="E26XL" to="E50XXL" />
    <trip id="293" type="passenger" depart="4395.00" from="E26XL" to="E47XL" />
    <trip id="294" type="passenger" depart="4410.00" from="E48S" to="E47XL" />
    <trip id="295" type="passenger" depart="4425.00" from="E30S" to="E50XXL" />
    <trip id="296" type="passenger" depart="4440.00" from="E28S" to="E47XL" />
    <trip id="297" type="passenger" depart="4455.00" from="E32L" to="E50XXL" />
    <trip id="298" type="passenger" depart="4470.00" from="E8S" to="E46XL" />
    <trip id="299" type="passenger" depart="4485.00" from="E13XL" to="E46XL" />
    <trip id="300" type="passenger" depart="4500.00" from="E27M" to="E50XXL" />
    <trip id="301" type="passenger" depart="4515.00" from="E30S" to="E57L" />
    <trip id="302" type="passenger" depart="4530.00" from="E24M" to="E47XL" />
    <trip id="303" type="passenger" depart="4545.00" from="-E49M" to="E47XL" />
    <trip id="304" type="passenger" depart="4560.00" from="E21M" to="E46XL" />
    <trip id="305" type="passenger" depart="4575.00" from="E31M" to="E46XL" />
    <trip id="306" type="passenger" depart="4590.00" from="E28S" to="E46XL" />
    <trip id="307" type="passenger" depart="4605.00" from="E8S" to="E47XL" />
    <trip id="308" type="passenger" depart="4620.00" from="E28S" to="E47XL" />
    <trip id="309" type="passenger" depart="4635.00" from="E22M" to="E46XL" />
    <trip id="310" type="passenger" depart="4650.00" from="E16M" to="E46XL" />
    <trip id="311" type="passenger" depart="4665.00" from="E13XL" to="E46XL" />
    <trip id="312" type="passenger" depart="4680.00" from="E10SS" to="E47XL" />
    <trip id="313" type="passenger" depart="4695.00" from="E55L" to="E47XL" />
    <trip id="314" type="passenger" depart="4710.00" from="E27M" to="E50XXL" />
    <trip id="315" type="passenger" depart="4725.00" from="E31M" to="E50XXL" />
    <trip id="316" type="passenger" depart="4740.00" from="E55L" to="E47XL" />
    <trip id="317" type="passenger" depart="4755.00" from="E35M" to="E57L" />
    <trip id="318" type="passenger" depart="4770.00" from="E29M" to="E57L" />
    <trip id="319" type="passenger" depart="4785.00" from="E33SS" to="E57L" />
    <trip id="320" type="passenger" depart="4800.00" from="E26XL" to="E47XL" />
    <trip id="321" type="passenger" depart="4815.00" from="E2S" to="E57L" />
    <trip id="322" type="passenger" depart="4830.00" from="E55L" to="E46XL" />
    <trip id="323" type="passenger" depart="4845.00" from="E26XL" to="E47XL" />
    <trip id="324" type="passenger" depart="4860.00" from="E31M" to="E50XXL" />
    <trip id="325" type="passenger" depart="4875.00" from="E41SS" to="E57L" />
    <trip id="326" type="passenger" depart="4890.00" from="E42SS" to="E57L" />
    <trip id="327" type="passenger" depart="4905.00" from="E37M" to="E57L" />
    <trip id="328" type="passenger" depart="4920.00" from="E32L" to="E47XL" />
    <trip id="329" type="passenger" depart="4935.00" from="E39M" to="E57L" />
    <trip id="330" type="passenger" depart="4950.00" from="E9S" to="E46XL" />
    <trip id="331" type="passenger" depart="4965.00" from="E31M" to="E57L" />
    <trip id="332" type="passenger" depart="4980.00" from="E53L" to="E50XXL" />
    <trip id="333" type="passenger" depart="4995.00" from="E35M" to="E50XXL" />
    <trip id="334" type="passenger" depart="5010.00" from="E53L" to="E50XXL" />
    <trip id="335" type="passenger" depart="5025.00" from="E55L" to="E46XL" />
    <trip id="336" type="passenger" depart="5040.00" from="E28S" to="E50XXL" />
    <trip id="337" type="passenger" depart="5055.00" from="E31M" to="E47XL" />
    <trip id="338" type="passenger" depart="5070.00" from="E27M" to="E50XXL" />
    <trip id="339" type="passenger" depart="5085.00" from="E48S" to="E46XL" />
    <trip id="340" type="passenger" depart="5100.00" from="E16M" to="E47XL" />
    <trip id="341" type="passenger" depart="5115.00" from="-E49M" to="E46XL" />
    <trip id="342" type="passenger" depart="5130.00" from="E35M" to="E57L" />
    <trip id="343" type="passenger" depart="5145.00" from="E30S" to="E46XL" />
    <trip id="344" type="passenger" depart="5160.00" from="E38M" to="E57L" />
    <trip id="345" type="passenger" depart="5175.00" from="E16M" to="E47XL" />
    <trip id="346" type="passenger" depart="5190.00" from="E56L" to="E46XL" />
    <trip id="347" type="passenger" depart="5205.00" from="E13XL" to="E46XL" />
    <trip id="348" type="passenger" depart="5220.00" from="E35M" to="E57L" />
    <trip id="349" type="passenger" depart="5235.00" from="E28S" to="E46XL" />
    <trip id="350" type="passenger" depart="5250.00" from="E37M" to="E57L" />
    <trip id="351" type="passenger" depart="5265.00" from="E13XL" to="E46XL" />
    <trip id="352" type="passenger" depart="5280.00" from="E21M" to="E46XL" />
    <trip id="353" type="passenger" depart="5295.00" from="E54L" to="E50XXL" />
    <trip id="354" type="passenger" depart="5310.00" from="E15L" to="E46XL" />
    <trip id="355" type="passenger" depart="5325.00" from="E28S" to="E50XXL" />
    <trip id="356" type="passenger" depart="5340.00" from="E48S" to="E46XL" />
    <trip id="357" type="passenger" depart="5355.00" from="E18S" to="E47XL" />
    <trip id="358" type="passenger" depart="5370.00" from="E30S" to="E57L" />
    <trip id="359" type="passenger" depart="5385.00" from="E32L" to="E57L" />
    <trip id="360" type="passenger" depart="5400.00" from="E32L" to="E50XXL" />
    <trip id="361" type="passenger" depart="5415.00" from="E29M" to="E47XL" />
    <trip id="362" type="passenger" depart="5430.00" from="E28S" to="E47XL" />
    <trip id="363" type="passenger" depart="5445.00" from="E22M" to="E46XL" />
    <trip id="364" type="passenger" depart="5460.00" from="E55L" to="E46XL" />
    <trip id="365" type="passenger" depart="5475.00" from="E24M" to="E47XL" />
    <trip id="366" type="passenger" depart="5490.00" from="E31M" to="E57L" />
    <trip id="367" type="passenger" depart="5505.00" from="E38M" to="E50XXL" />
    <trip id="368" type="passenger" depart="5520.00" from="E35M" to="E50XXL" />
    <trip id="369" type="passenger" depart="5535.00" from="E21M" to="E47XL" />
    <trip id="370" type="passenger" depart="5550.00" from="E3S" to="E57L" />
    <trip id="371" type="passenger" depart="5565.00" from="E31M" to="E57L" />
    <trip id="372" type="passenger" depart="5580.00" from="E53L" to="E57L" />
    <trip id="373" type="passenger" depart="5595.00" from="E38M" to="E57L" />