<configuration>
	<input>
		<net-file value="Network_Files\Cubbon.net.xml" />
		<route-files value="Trips_Files\cubbon.trips.xml" />
	</input>
	<processing>
		<time-to-teleport value="3600" />
		<ignore-route-errors value="True" />
		<tls.actuated.jam-threshold value="30" />
	</processing>
	<routing>
		<device.rerouting.adaptation-steps value="18" />
		<device.rerouting.adaptation-interval value="10" />
	</routing>
</configuration>
