<?xml version="1.0" ?>
<additional>
	<rerouter id="REROUTER_383031432#9_0" edges="None " probability="1.0">
		<interval begin="1:0:0" end="3:30:0">
			<closingLaneReroute id="383031432#9_0" allow=""/>
		</interval>
		<interval begin="3:40:0" end="13:30:0">
			<closingLaneReroute id="383031432#9_0" allow=""/>
		</interval>
	</rerouter>
</additional>
