<?xml version="1.0" ?>
<additional>
  <rerouter id="REROUTER_1" edges="46918818" probability="0.5">
    <interval begin="0" end="3600">
      <closingReroute id="46918818" allow="" disallow="all"/>
    </interval>
    <interval begin="7200" end="10800">
      <closingReroute id="46918818" allow="" disallow="all"/>
    </interval>
    <interval begin="67725" end="76205">
      <closingReroute id="46918818" allow="" disallow="all"/>
    </interval>
  </rerouter>
</additional>
