<?xml version="1.0" encoding="UTF-8"?>

<!-- generated on 2024-06-21 13:10:13.889305 by generateTurnRatios.py v1_20_0+0067-0afb14a3f29
  options: <doubleminus>route-files E:\Road_Simulation_Project\API\Output_File\IISC\iisc.trips.xml
-->

<data xmlns:xsi="http://www.w3.org/2001/XMLSchema-instance" xsi:noNamespaceSchemaLocation="http://sumo.dlr.de/xsd/datamode_file.xsd">
    <interval id="generated" begin="1e+20" end="0">
    </interval>
</data>
